16
Converted from CML to XYZ
C 2.200612 -0.051701 0.019891
C 1.71286 -1.373841 0.075318
C 0.360768 -1.643904 0.076671
C -0.533757 -0.566127 0.021175
C 1.348104 1.030043 -0.035471
C -0.02966 0.762154 -0.034429
C -1.967611 -0.486841 0.006185
C -2.316468 0.84625 -0.056455
H 3.283422 0.111055 0.021228
H 2.432478 -2.197765 0.118001
H -0.018777 -2.669025 0.119611
H 1.725323 2.055997 -0.078538
H -2.643608 -1.337062 0.038929
H -3.311586 1.289951 -0.084313
N -1.141064 1.623248 -0.081901
H -1.101037 2.607569 -0.125903
