10
Converted from CML to XYZ
N -0.943696 0.601593 -0.345679
C 0.301228 1.160558 -0.046969
C 1.139821 0.114597 0.319871
C 0.397161 -1.094376 0.243506
C -0.8929 -0.783292 -0.169695
H 0.516997 2.225856 -0.108373
H 2.18195 0.201218 0.61431
H 0.776258 -2.087028 0.469651
H -1.739154 -1.44659 -0.33998
H -1.737666 1.107465 -0.636643
