18
Converted from CML to XYZ
C 2.519847 0.593824 0.010349
C 2.429596 -0.79616 0.05908
C 1.189634 -1.420443 0.031614
C 0.023828 -0.656311 -0.042067
C 1.375421 1.376644 -0.059962
C 0.124743 0.744862 -0.081704
C -2.374962 -0.467293 -0.040262
O -0.96747 1.576083 -0.191895
C -1.298199 -1.258818 -0.087811
H 3.503349 1.075001 0.028699
H 3.341533 -1.398875 0.117404
H 1.118038 -2.513101 0.065613
H 1.447562 2.469056 -0.100175
C -2.2455 1.011763 0.075262
H -3.394356 -0.863757 -0.066278
H -1.368562 -2.34896 -0.160646
H -2.891237 1.537881 -0.650592
H -2.533264 1.338603 1.093371
