13
Converted from CML to XYZ
C 2.300767 -0.759743 -0.077876
C 1.115308 -0.155325 -0.104853
C -0.11661 -0.826465 0.278948
C -1.315843 -0.232555 0.256491
H 2.435061 -1.79288 0.230883
H 3.218831 -0.256867 -0.365037
H -0.028712 -1.872479 0.598678
H 1.009056 0.894834 -0.423276
C -1.550958 1.167805 -0.155834
H -2.207224 -0.795358 0.558552
H -0.617484 1.678387 -0.446261
H -2.006108 1.741335 0.662364
H -2.236083 1.20931 -1.012778
