18
Converted from CML to XYZ
C 2.463967 0.751859 0.074538
C 2.38442 -0.637894 0.038792
C 1.147246 -1.268966 -0.004808
C -0.027789 -0.518197 -0.013275
C 1.309483 1.523696 0.067132
C 0.067495 0.879172 0.023079
C -2.476293 -0.211315 -0.061455
O -1.03857 1.717206 0.01837
C -1.35954 -1.189762 -0.0603
H 3.442705 1.241571 0.10878
H 3.300675 -1.236801 0.045047
H 1.086105 -2.362466 -0.032889
H 1.368898 2.617362 0.095235
C -2.265677 1.108834 -0.024315
H -3.493748 -0.610873 -0.09428
H -1.46531 -1.873841 0.806366
H -1.424914 -1.829503 -0.964009
H -3.019154 1.899918 -0.022008
