24
Converted from CML to XYZ
C 3.60327 0.830852 0.060516
C 3.63588 -0.560756 0.003855
C 2.453405 -1.287547 -0.034497
C 1.219966 -0.634296 -0.016943
C 2.390816 1.505587 0.079237
C 1.201678 0.76379 0.040129
C -0.044042 -1.421777 -0.058834
C -1.256865 -0.556862 -0.031993
O 0.047248 1.524634 0.062822
C -1.152048 0.837387 0.025883
C -2.528325 -1.131906 -0.064795
C -3.663555 -0.332746 -0.040447
C -3.544848 1.054103 0.017186
C -2.292973 1.651991 0.050914
H 4.539816 1.397495 0.0905
H 4.597535 -1.083696 -0.010394
H 2.479955 -2.382015 -0.079039
H 2.362749 2.60015 0.123797
H -0.071279 -2.125871 0.798208
H -2.622587 -2.22258 -0.110115
H -4.655843 -0.794395 -0.066624
H -4.44455 1.677983 0.03609
H -2.19718 2.742677 0.096258
H -0.058225 -2.052201 -0.971711
