52
Converted from CML to XYZ
C 3.522225 0.287166 -0.886674
C 3.291496 -0.579661 -2.104575
C 2.377508 -1.782206 -1.803495
C 1.258738 -1.3893 -0.788278
C 0.952454 0.131369 -0.730842
C 2.232454 0.940324 -0.419453
H 4.273716 1.067026 -1.119427
H 3.967946 -0.312208 -0.067759
H 4.253495 -0.926628 -2.52831
H 2.807581 0.038817 -2.896869
C 3.240637 -2.911452 -1.222992
C 1.814879 -2.277084 -3.143997
C -0.030475 -2.167037 -1.059588
C -0.038669 0.366926 0.449903
C 0.353785 0.612422 -2.054436
H 2.311004 1.121229 0.672937
H 2.138657 1.947751 -0.874841
C -1.153998 -1.767281 -0.182379
C -1.191521 -0.592354 0.464418
O 3.603302 -3.945779 -1.757658
O 3.706767 -2.775421 0.042168
H 1.465749 -3.318083 -3.089653
H 2.571558 -2.233511 -3.938532
H 0.953351 -1.665764 -3.456388
H 0.155075 -3.255088 -0.975754
H -0.361143 -1.972113 -2.110593
C -0.550107 1.808675 0.495109
H 1.133079 0.696764 -2.830324
H -0.13009 1.595831 -1.944016
H -0.410278 -0.091048 -2.423393
H -1.992413 -2.471624 -0.119036
C -2.367692 -0.223321 1.245247
H 4.228299 -3.542853 0.259892
C -1.463661 2.036105 1.685427
C -2.516435 0.986525 1.806846
C -3.752799 1.3317 2.592592
C -3.408377 1.543611 4.059804
C -4.423777 2.567127 2.009613
H -1.069808 2.045009 -0.45973
H 0.304281 2.513308 0.547885
H -3.14982 -0.987643 1.346679
H -1.951925 3.035015 1.613847
H -0.876042 2.051115 2.62684
H -4.473675 0.478471 2.527282
H -2.732022 2.398028 4.199534
H -2.915048 0.660202 4.484428
H -4.311031 1.738593 4.653506
H -5.24959 2.912339 2.64393
H -4.830242 2.367397 1.010419
H -3.702213 3.395816 1.910339
H 1.610174 -1.658949 0.239304
H 0.524647 0.171753 1.40104
