20
Converted from CML to XYZ
C 1.933813 1.453827 -0.137493
C 2.644434 0.231609 0.019506
C 2.008488 -0.97891 0.150833
C 0.587419 -1.045456 0.133588
C -0.090656 0.161462 -0.020872
C 0.567221 1.415596 -0.157408
C -1.509372 0.261613 -0.057392
C -2.258441 -0.875711 0.06404
C -1.58443 -2.118262 0.222465
C -0.214474 -2.214115 0.257476
C -0.486354 2.459157 -0.299511
C -1.850992 1.700901 -0.233364
H 2.481701 2.396884 -0.239092
H 3.73951 0.271726 0.034554
H 2.581292 -1.905317 0.270029
H -3.353122 -0.845235 0.041536
H -2.192706 -3.024683 0.319074
H 0.278253 -3.185053 0.380395
O -0.332526 3.646986 -0.438005
O -2.949059 2.192979 -0.31036
