10
Converted from CML to XYZ
H 1.847235 0.084307 1.237503
C 1.237688 0.06321 0.324908
H 1.464366 0.97081 -0.249593
H 1.561659 -0.798197 -0.273569
C -0.237605 -0.022005 0.609231
O -0.679587 -0.063197 1.741756
C -1.129266 -0.053053 -0.602582
H -0.984247 0.851742 -1.207089
H -0.885539 -0.917151 -1.234259
H -2.194703 -0.116466 -0.346305
