9
Converted from CML to XYZ
C 1.119876 -0.113564 -0.048934
C -0.221489 0.537421 0.153904
N -1.367026 -0.236934 -0.045703
O -0.395826 1.705369 0.483916
H 1.938133 0.594584 0.137095
H 1.231877 -0.48457 -1.076445
H 1.257953 -0.963725 0.63239
H -2.272053 0.148085 0.076222
H -1.291446 -1.186666 -0.312445
