24
Converted from CML to XYZ
C 0.979657 0.086163 0.459697
C 0.504989 -0.962234 -0.575075
C -0.789299 -0.482897 -1.274978
H 1.290995 -1.131869 -1.32108
H 0.323967 -1.921771 -0.075485
C -1.889189 -0.255064 -0.213372
C -1.359079 0.782393 0.753424
H -2.818331 0.091927 -0.680893
H -2.117534 -1.186649 0.316743
C -0.136166 0.30512 1.511639
H 0.171531 1.046185 2.258993
H -0.357772 -0.626493 2.044295
C 1.250963 1.423162 -0.277636
H 1.89464 -0.261353 0.95177
C -0.505365 0.860281 -1.990237
H -1.120134 -1.231824 -2.002882
C -0.043318 1.918842 -0.964178
H 0.26621 0.719641 -2.757066
H -1.41102 1.204938 -2.50549
H 0.130251 2.878123 -1.462258
C -1.113274 2.071953 0.10483
H 1.61092 2.173954 0.437466
H 2.042596 1.285114 -1.024148
H -1.092194 2.956398 0.736061
