15
Converted from CML to XYZ
N -2.237793 0.007853 0.018654
C -0.966987 0.600207 0.020784
C -0.031978 -0.462656 0.019023
N -0.738749 -1.680026 0.008976
C -2.046677 -1.392418 0.010363
C 1.345959 -0.126889 0.023689
N 1.685527 1.193889 0.000197
C 0.711882 2.162495 0.006024
N -0.613349 1.930976 0.018228
H 1.054014 3.205726 -0.002411
N 2.375207 -1.06038 0.150625
H -3.106008 0.478731 0.02194
H -2.848276 -2.136545 0.006312
H 2.141337 -1.970211 -0.16982
H 3.275891 -0.750752 -0.132584
