24
Converted from CML to XYZ
C 1.6452 1.6512 0.6069
C 1.8767 0.4356 1.5352
C 0.8379 -0.6646 1.2328
O 1.0641 -1.6493 2.2493
C -0.5807 -0.0706 1.3706
C -0.7364 1.1878 0.4828
C -2.0343 1.9532 0.7853
O -3.1473 1.0982 0.4854
O 0.3066 2.1476 0.7765
O -1.4577 -1.0915 0.8821
O 3.2119 -0.001 1.2938
O 1.7711 1.2055 -0.7276
H -0.6613 0.9064 -0.5928
H 2.2768 2.5327 0.8327
H 1.8133 0.7521 2.6057
H 0.9936 -1.1297 0.2318
H -0.8253 0.134 2.4368
H 1.7679 1.9575 -1.3578
H 3.3111 -0.9343 1.6103
H -2.1553 2.1721 1.8641
H -2.0965 2.8966 0.2167
H -2.3981 -0.7556 0.9128
H 0.4047 -2.3775 2.153
H -3.2973 1.0559 -0.4847
