23
Converted from CML to XYZ
C 1.0624 0.1508 0.8962
C 1.3627 -0.5374 -0.4619
C 0.2719 -0.231 -1.5206
O 0.368 -1.145 -2.602
C -1.1532 -0.337 -0.9154
O -1.4153 -1.7237 -0.6713
C -1.2842 0.505 0.3688
C -2.6033 0.3129 1.0903
O -0.2861 0.0253 1.3222
O 2.6478 -0.1138 -0.8852
O 1.3364 1.5307 0.6659
H -1.0632 1.5773 0.1643
H 1.6444 -0.2444 1.7535
H 1.4904 -1.6385 -0.3348
H 0.4555 0.7589 -1.998
H -1.9231 -0.0688 -1.6762
H 1.2243 2.0582 1.484
H 2.672 0.8721 -0.9896
H -2.9677 -0.7227 1.0155
H -3.3842 0.9677 0.6873
H -2.4953 0.5348 2.1627
H -1.0442 -1.9861 0.2074
H -0.0293 -2.0198 -2.3477
