23
Converted from CML to XYZ
C 0.4992 0.4638 -1.2218
O -0.7637 -0.1732 -1.1052
C -1.4169 -0.0265 0.1937
C -2.7401 -0.7455 0.0213
C -0.5028 -0.6607 1.2605
O -0.32 -2.0637 1.0394
C 0.9018 -0.0008 1.2725
O 1.7323 -0.7315 2.1618
C 1.5284 0.0286 -0.1453
O 2.6311 0.9162 -0.2214
O 0.3225 1.8611 -1.0014
H -1.5459 1.0637 0.3809
H -0.9581 -0.6272 2.278
H 0.8823 1.0224 1.7134
H 1.9839 -0.9579 -0.3978
H 0.805 0.2507 -2.2662
H -0.2875 2.2522 -1.66
H 2.34 1.848 -0.0487
H 1.6182 -1.7068 2.0134
H -0.2456 -2.2441 0.0698
H -2.6468 -1.8289 0.1896
H -3.501 -0.3686 0.7141
H -3.1219 -0.6154 -1.003
