22
Converted from CML to XYZ
C -1.051 1.553 -0.338
C -1.56 0.29 -1.057
C -0.584 -0.883 -0.856
O -0.936 -1.944 -1.749
C 0.875 -0.465 -1.119
C 1.204 0.854 -0.396
C 2.611 1.288 -0.731
O 3.446 1.387 0.153
O 2.925 1.549 -1.933
O 0.28 1.89 -0.738
O 1.751 -1.492 -0.645
O -2.84 -0.068 -0.528
O -1.075 1.331 1.075
H 1.203 0.696 0.681
H -1.714 2.386 -0.566
H -1.656 0.498 -2.12
H -0.671 -1.251 0.164
H 1.022 -0.333 -2.189
H -1.67 1.967 1.501
H -3.508 -0.046 -1.231
H 2.28 -1.842 -1.379
H -1.169 -2.739 -1.244
