20
Converted from CML to XYZ
C 1.3699 0.5443 -0.5076
C 0.2237 -0.1396 -1.3093
C -0.9901 -0.464 -0.4113
C -1.3903 0.7893 0.4127
C -0.1807 1.2344 1.2476
O 0.861 1.6222 0.3402
O -1.7552 1.8335 -0.5114
O -2.0822 -0.9323 -1.1796
O -0.1313 0.7265 -2.386
O 2.2404 1.2099 -1.3679
H 0.1753 0.4556 1.9423
H -0.3667 2.1675 1.8152
H 1.9915 -0.1309 0.1094
H 0.6011 -1.0476 -1.8377
H -0.7761 -1.3274 0.2635
H -2.3131 0.6056 1.0045
H 1.7292 1.684 -2.0883
H -0.7846 1.4226 -2.071
H -1.0714 2.5555 -0.4918
H -2.3178 -0.2691 -1.8797
