20
Converted from CML to XYZ
C 1.3899 0.0553 0.138
C 0.1756 -0.7889 0.6038
O 0.5142 -1.4785 1.8139
C -0.9995 0.12 1.0013
C -1.3539 1.1079 -0.1338
C -0.1137 1.7844 -0.7368
O 1.0136 0.9178 -0.9458
O -1.9943 0.4248 -1.2149
O -2.1985 -0.6537 1.1552
O 2.3592 -0.7855 -0.4497
H 0.222 2.6357 -0.1187
H -0.3247 2.1135 -1.7795
H 1.9044 0.6052 0.9491
H -0.1217 -1.5263 -0.1752
H -0.7924 0.6366 1.9662
H -2.0757 1.873 0.2444
H 2.1747 -0.8996 -1.4171
H 1.2894 -2.0672 1.656
H -2.6286 -0.2501 -0.8529
H -2.017 -1.431 1.737
