20
Converted from CML to XYZ
C 1.1676 1.0536 0.0083
O 0.0585 1.7754 -0.5773
C -1.0553 0.9783 -1.0048
C -1.6416 0.1734 0.1744
C -0.5173 -0.7339 0.7471
C 0.7056 0.114 1.1576
O 0.3489 0.9937 2.2339
O -0.9876 -1.312 1.9706
O -2.1572 1.0575 1.1518
O 1.991 2.0705 0.4968
H -0.7518 0.3422 -1.8513
H -1.7663 1.7557 -1.3524
H 1.746 0.543 -0.7864
H 1.5471 -0.522 1.5121
H -0.24 -1.5254 0.0217
H -2.5324 -0.4261 -0.1177
H 1.5117 2.601 1.193
H -0.1956 0.4862 2.8994
H -1.0476 -2.2839 1.9008
H -1.4312 1.6764 1.4624
