24
Converted from CML to XYZ
C 1.7642 0.3353 0.6851
C 2.0927 -0.2613 -0.7003
O 2.3615 -1.654 -0.5641
C 0.9211 -0.0844 -1.6891
O 1.131 -0.9072 -2.8378
C -0.4179 -0.5437 -1.0593
O -0.3818 -1.9771 -0.9067
C -0.644 0.0612 0.3383
C -1.7463 -0.6558 1.1415
O -3.0043 -0.0514 0.8359
O 0.51 -0.0776 1.2045
O 1.7375 1.7429 0.4917
H -0.8605 1.152 0.2432
H 2.4712 0.036 1.4896
H 3.0452 0.1587 -1.1024
H 0.8562 0.9559 -2.0805
H -1.2695 -0.2953 -1.7336
H 1.4268 2.2045 1.3014
H 1.5481 -2.1159 -0.1865
H -1.7646 -1.7428 0.9448
H -1.6171 -0.4727 2.228
H -0.2704 -2.3846 -1.8039
H 1.7629 -1.6464 -2.6166
H -3.3652 -0.4142 0.0013
