16
Converted from CML to XYZ
C 0.765656 1.337623 -0.035239
C 2.060655 0.840914 -0.024547
C 2.290438 -0.532767 0.006607
C 1.218441 -1.415434 0.026783
C -0.089794 -0.941451 0.016681
C -0.313101 0.438382 -0.014034
H 0.586073 2.418415 -0.059945
H 2.907602 1.534758 -0.040448
H 3.315873 -0.915293 0.015234
H 1.399731 -2.495032 0.050965
H -0.921077 -1.654931 0.032764
O -1.551933 1.049122 -0.027907
C -2.684881 0.217693 0.007234
H -2.748338 -0.43737 -0.869417
H -3.50468 0.940978 -0.006037
H -2.730663 -0.385607 0.921306
