24
Converted from CML to XYZ
C 3.66094 0.58478 -0.0
C 3.610987 -0.839654 -0.0
C 2.416498 -1.489466 0.0
C 1.187042 -0.752752 -0.0
C 2.514848 1.316646 -0.0
C 1.23685 0.66787 -0.0
C -0.049134 -1.403185 -0.0
C -1.236882 -0.66775 -0.0
C 0.049201 1.403288 -0.0
C -1.187119 0.752833 -0.0
C -2.514747 -1.316638 0.0
C -3.660904 -0.584815 -0.0
C -3.611015 0.839549 -0.0
C -2.4165 1.489531 -0.0
H 4.639743 1.075562 0.0
H 4.55289 -1.397948 -0.0
H 2.368043 -2.584328 0.0
H 2.543253 2.412213 -0.0
H -0.087608 -2.499478 -0.0
H 0.087635 2.499579 0.0
H -2.543086 -2.4122 -0.0
H -4.639677 -1.075563 -0.0
H -4.553113 1.397533 -0.0
H -2.368146 2.584394 -0.0
