54
Converted from CML to XYZ
C 0.250636 -2.72724 2.016417
C -0.871655 -2.735535 2.737741
C -2.010256 -1.797089 2.541563
C -2.295511 -1.038023 3.789659
C -3.490238 -0.967503 4.379001
C 0.54879 -1.756678 0.928948
C -4.713668 -1.663691 3.898792
H 1.033415 -3.469921 2.212643
H -1.002808 -3.473094 3.538649
H -2.904519 -2.374059 2.212203
H -1.79387 -1.074267 1.721424
H -1.438714 -0.508783 4.224324
H -3.616525 -0.366231 5.288231
C 0.928498 -2.450286 -0.331218
H 1.368461 -1.076764 1.260686
H -0.329417 -1.099508 0.730584
C -5.844323 -0.67319 3.662014
H -4.499666 -2.236922 2.967621
C 1.889992 -2.024222 -1.153437
H 0.35971 -3.356561 -0.569842
H 2.115285 -2.578096 -2.072444
C 2.704656 -0.803447 -0.912096
H 2.247842 0.057023 -1.455644
C 4.118956 -0.988779 -1.333191
H 2.675512 -0.52583 0.168155
H 4.553845 -1.974608 -1.130267
C 4.852509 -0.038815 -1.917508
H -5.012627 -2.417392 4.655032
C -7.105581 -1.396106 3.211701
H -5.538889 0.071529 2.900968
H -6.044025 -0.095325 4.586656
C 4.354041 1.327709 -2.225119
H 5.893986 -0.24324 -2.194746
H 4.689593 2.015373 -1.422211
H 3.239621 1.347192 -2.191553
C 4.85038 1.814169 -3.577776
H 5.958618 1.795416 -3.606233
C 4.34656 3.217623 -3.873457
H 4.520957 1.116689 -4.373282
H -6.908552 -1.974686 2.286481
C -8.228829 -0.414236 2.995282
H -7.420685 -2.136143 3.97437
C 4.841163 3.712488 -5.223141
H 4.672398 3.913481 -3.074045
H 3.238249 3.235699 -3.848304
O -8.949812 0.119474 3.81877
O -8.469104 -0.084735 1.704174
H 4.516113 3.016219 -6.021696
H 5.948998 3.695484 -5.247648
C 4.339493 5.107886 -5.518496
H -9.187512 0.538259 1.654738
H 4.697396 5.461966 -6.493595
H 4.678881 5.828887 -4.762797
H 3.242234 5.148429 -5.537086
