20
Converted from CML to XYZ
N 0.565796 1.352482 -0.61847
C 1.481728 0.591812 0.268503
C 1.478657 -0.906983 -0.018415
C 0.1278 -1.53065 -0.334317
C -1.038172 -0.960014 0.458556
C -1.645566 0.266381 -0.205448
C -0.799804 1.525351 -0.061009
H 0.957679 2.253912 -0.786282
H 1.240996 0.768159 1.340975
H 2.50928 0.981255 0.122223
H 1.924771 -1.415393 0.860734
H 2.165229 -1.124613 -0.861133
H 0.198127 -2.621298 -0.14766
H -0.083789 -1.435821 -1.419134
H -0.726464 -0.725764 1.495927
H -1.8239 -1.735773 0.553005
H -2.641587 0.468131 0.237668
H -1.834574 0.05584 -1.277827
H -0.773081 1.838316 1.007034
H -1.283126 2.354672 -0.614928
