14
Converted from CML to XYZ
C -0.012007 1.228241 -0.006582
C 1.3666 1.042867 -0.010126
C 1.898359 -0.24194 -0.004941
C 1.050898 -1.346339 0.003802
C -0.32637 -1.165865 0.007372
C -0.864652 0.123699 0.002189
C -2.340255 0.282247 0.006188
O -2.902337 1.354211 0.00221
H 2.033221 1.911636 -0.01701
H 2.983969 -0.385976 -0.00775
H 1.470069 -2.357976 0.00788
H -0.992517 -2.036946 0.014262
H -2.93205 -0.649104 0.013174
H -0.43293 2.241247 -0.010669
