15
Converted from CML to XYZ
H 2.008291 -0.151938 2.593786
C 1.357337 -0.111673 1.714017
C -0.024475 -0.080989 1.87221
H -0.461005 -0.098545 2.876471
C -0.85599 -0.027457 0.759148
H -1.943647 -0.002536 0.893891
C -0.29964 -0.006162 -0.52211
C -1.152667 0.04305 -1.731681
O -0.869028 -0.272727 -2.875428
O -2.416265 0.504448 -1.563356
H -2.868693 0.491958 -2.40126
C 1.08859 -0.042187 -0.68044
H 1.52554 -0.034235 -1.686736
C 1.912029 -0.092487 0.438457
H 2.999623 -0.11852 0.313032
