24
Converted from CML to XYZ
C 1.8053 -1.4618 -0.4501
C 1.3258 -0.0309 -0.7632
O 0.2895 -0.1176 -1.7742
C -1.031 -0.4544 -1.3144
C -1.4816 0.5278 -0.2216
O -2.7072 0.0023 0.3134
C -0.4911 0.53 0.9648
O -0.4274 -0.7656 1.5766
C 0.948 0.8088 0.4831
O 0.9761 2.2109 0.2142
O 2.3137 0.7351 -1.4235
O 1.9575 -2.1955 -1.6641
H -1.0439 -1.4951 -0.9411
H -1.6316 -0.3725 -2.2381
H 1.6779 0.6239 1.3094
H -0.7945 1.2738 1.7372
H -1.6135 1.5568 -0.6177
H 1.0935 -1.9807 0.2252
H 2.8194 -1.4728 -0.0058
H 2.5133 0.3447 -2.3141
H 1.4716 2.3959 -0.6287
H -1.3475 -1.0847 1.7581
H -3.468 0.56 0.0597
H 1.1355 -2.1107 -2.2087
