20
Converted from CML to XYZ
C 1.4631 0.8938 0.1698
O 0.4228 1.6506 -0.4727
C -0.8694 1.0328 -0.5539
C -1.3693 0.6755 0.8535
O -2.5825 -0.0592 0.612
C -0.3933 -0.2821 1.5725
O -0.3947 -1.5711 0.9463
C 1.0679 0.1967 1.4994
O 1.1968 1.0999 2.6014
O 2.4002 1.9134 0.5072
H -0.8159 0.1409 -1.2051
H -1.4835 1.8173 -1.0352
H 1.9416 0.224 -0.5708
H 1.7538 -0.6689 1.681
H -0.6856 -0.4313 2.64
H -1.5678 1.5798 1.4664
H 2.0037 2.8043 0.312
H 1.9769 1.7029 2.447
H -1.2805 -1.7413 0.5323
H -3.1575 -0.04 1.4058
