24
Converted from CML to XYZ
C 0.6798 1.3665 -0.7618
O -0.4413 1.0347 0.0781
C -0.7833 -0.3705 0.1452
C 0.41 -1.1271 0.7676
O 0.0402 -2.5069 0.6836
C 1.6987 -0.8872 -0.0505
C 1.9556 0.6119 -0.2987
O 2.8961 0.6187 -1.3814
O 2.734 -1.4158 0.7899
C -2.0347 -0.4054 1.036
O -3.1982 -0.1175 0.2622
O 0.8335 2.7517 -0.5562
H -1.0165 -0.7447 -0.8778
H 0.5761 -0.859 1.8363
H 1.6909 -1.4509 -1.0133
H 2.411 1.0976 0.5928
H 0.4464 1.2348 -1.8374
H 0.5634 3.0033 0.3619
H 3.2124 1.5369 -1.5483
H 3.6047 -1.3358 0.3341
H 0.7879 -3.0676 1.0052
H -1.9568 0.3053 1.878
H -2.2207 -1.4362 1.4078
H -3.1579 0.805 -0.0767
