20
Converted from CML to XYZ
C 1.3413 0.5479 0.539
O 0.3124 1.467 0.9519
C -0.9811 0.8839 1.1743
C -1.5027 0.2423 -0.122
C -0.4908 -0.7802 -0.6859
O -0.9698 -1.0381 -2.0135
C 0.9327 -0.1943 -0.7621
O 1.771 -1.3503 -0.9001
O -2.69 -0.4439 0.2919
O 2.4376 1.3987 0.281
H -0.934 0.1529 2.0018
H -1.5903 1.7551 1.4835
H 1.6494 -0.1263 1.3625
H 1.0503 0.4595 -1.6547
H -0.4963 -1.7338 -0.108
H -1.7653 0.9961 -0.8987
H 2.1229 2.3104 0.0531
H 2.7046 -1.0705 -1.048
H -0.4106 -1.73 -2.4384
H -3.1064 -0.8807 -0.489
