23
Converted from CML to XYZ
C 0.5286 1.4367 -0.4058
O -0.7062 0.8464 -0.7818
C -1.4355 0.0683 0.1944
C -0.4854 -0.6717 1.166
C 0.8782 -0.9393 0.493
C 1.5617 0.3824 0.0944
O 2.4414 0.0159 -0.9766
O 1.6339 -1.5898 1.5264
O -0.2929 0.1893 2.3053
C -2.4281 0.9642 0.9144
O 0.3384 2.4136 0.5877
H -1.9517 -0.6657 -0.4729
H -0.9363 -1.6194 1.5381
H 0.7934 -1.6151 -0.3891
H 2.1568 0.7986 0.9394
H 0.8387 1.9799 -1.325
H -0.06 2.0186 1.417
H 3.0509 0.7547 -1.1879
H 2.5212 -1.8416 1.1847
H 0.4295 -0.1864 2.8719
H -1.9173 1.6783 1.5809
H -3.0054 1.56 0.194
H -3.1266 0.3881 1.5307
