20
Converted from CML to XYZ
C 1.4779 0.3526 -0.8036
C 0.3744 -0.0693 -1.8096
C -1.0619 -0.0054 -1.26
O -1.264 -1.2614 -0.6007
C -1.281 1.1657 -0.276
O -2.4532 0.8494 0.4974
C -0.1623 1.2389 0.774
O 1.1087 1.3874 0.1252
O 0.3579 0.8082 -2.9398
O 2.4999 0.9904 -1.5642
H -0.1532 0.3398 1.4175
H -0.2248 2.1499 1.3983
H 1.9365 -0.4914 -0.2529
H 0.5866 -1.1042 -2.1794
H -1.7821 0.0435 -2.1119
H -1.409 2.1264 -0.8168
H 2.5569 1.9486 -1.304
H 1.2918 1.0796 -3.1629
H -3.265 1.1251 0.0219
H -1.9103 -1.1494 0.1461
