12
Converted from CML to XYZ
C 0.589445 0.190529 -0.096238
C -0.596968 0.179628 0.019026
C 2.031063 0.207955 -0.249785
C -2.038871 0.177436 0.170368
O 2.726047 0.134014 0.966967
O -2.651705 -0.989054 -0.312443
H 2.369398 1.166366 -0.682924
H 2.335704 -0.612113 -0.930555
H -2.460623 1.079108 -0.317346
H -2.319579 0.193834 1.238834
H 2.432876 -0.645774 1.421168
H -2.416787 -1.081927 -1.227072
