15
Converted from CML to XYZ
C 0.40451 0.061877 0.285046
C -0.887794 -0.3304 -0.415581
C 1.506644 0.33999 -0.718885
H 0.231544 0.955456 0.918884
C -1.991797 -0.603955 0.580497
H 0.715243 -0.742925 0.981686
H -2.923279 -0.886187 0.073546
H -2.208476 0.27786 1.198171
H -1.728085 -1.423086 1.262804
H -0.717082 -1.225051 -1.047007
S 3.119294 0.740567 0.017044
H 1.191016 1.137807 -1.41636
H 1.694425 -0.555005 -1.343955
H -1.19832 0.471892 -1.114348
H 2.792157 1.78116 0.738458
