14
Converted from CML to XYZ
H 2.196616 -0.77182 1.72739
C 1.74922 -0.772606 0.725297
H 2.444077 -0.249246 0.054892
H 1.696433 -1.817204 0.390406
C 0.385074 -0.120272 0.73807
H -0.282413 -0.649322 1.446913
H 0.465089 0.917521 1.117233
C -0.229907 -0.118091 -0.654324
H 0.430848 0.41909 -1.364767
H -0.314975 -1.153708 -1.040239
C -1.604414 0.499962 -0.628014
O -2.639157 0.052601 -0.167148
O -1.700502 1.72232 -1.202338
H -2.595991 2.040772 -1.143371
