14
Converted from CML to XYZ
H 2.305665 0.032528 1.571782
C 1.836195 -0.010684 0.580832
H 2.224138 0.83445 -0.003364
H 2.184416 -0.930635 0.092569
C 0.328443 0.028758 0.685087
H -0.03046 -0.813387 1.309697
H 0.008972 0.94795 1.215352
C -0.328429 -0.030103 -0.684989
H 0.03188 0.810697 -1.310614
H -0.010606 -0.950402 -1.214299
C -1.836109 0.011872 -0.58082
H -2.225448 -0.832789 0.003097
H -2.183085 0.932306 -0.092509
H -2.305567 -0.030561 -1.571826
