26
Converted from CML to XYZ
C -0.76127 2.127668 0.0
C -1.46198 -1.723113 0.0
C 2.22325 -0.404555 0.0
C 0.76127 2.127668 0.0
C -2.22325 -0.404555 0.0
C 1.46198 -1.723113 0.0
C -0.73287 -1.747892 1.21852
C 1.880153 0.239262 1.21852
C -1.147283 1.50863 1.21852
C -0.73287 -1.747892 -1.21852
C 1.880153 0.239262 -1.21852
C -1.147283 1.50863 -1.21852
C 0.73287 -1.747892 -1.21852
C 1.147283 1.50863 -1.21852
C -1.880153 0.239262 -1.21852
C 0.73287 -1.747892 1.21852
C 1.147283 1.50863 1.21852
C -1.880153 0.239262 1.21852
C 0.0 1.340268 2.11254
C -1.160707 -0.670134 2.11254
C 1.160707 -0.670134 2.11254
C 0.0 1.340268 -2.11254
C -1.160707 -0.670134 -2.11254
C 1.160707 -0.670134 -2.11254
C 0.0 0.0 2.61082
C 0.0 0.0 -2.61082
