50
Converted from CML to XYZ
C 0.0 1.245998 2.6806
C -1.185015 0.385035 2.6806
C -0.732379 -1.008034 2.6806
C 0.732379 -1.008034 2.6806
C 1.185015 0.385035 2.6806
C 0.0 1.245998 -2.6806
C -1.185015 0.385035 -2.6806
C -0.732379 -1.008034 -2.6806
C 0.732379 -1.008034 -2.6806
C 1.185015 0.385035 -2.6806
C 0.0 2.460198 2.00246
C -2.339788 0.760243 2.00246
C -1.446068 -1.990342 2.00246
C 1.446068 -1.990342 2.00246
C 2.339788 0.760243 2.00246
C 0.0 2.460198 -2.00246
C -2.339788 0.760243 -2.00246
C -1.446068 -1.990342 -2.00246
C 1.446068 -1.990342 -2.00246
C 2.339788 0.760243 -2.00246
C -1.1924 2.844828 1.23658
C -3.074064 -0.254939 1.23658
C -0.707476 -3.00239 1.23658
C 2.63682 -1.600639 1.23658
C 2.337121 2.01314 1.23658
C -1.1924 2.844828 -1.23658
C -3.074064 -0.254939 -1.23658
C -0.707476 -3.00239 -1.23658
C 2.63682 -1.600639 -1.23658
C 2.337121 2.01314 -1.23658
C 1.1924 2.844828 -1.23658
C -2.337121 2.01314 -1.23658
C -2.63682 -1.600639 -1.23658
C 0.707476 -3.00239 -1.23658
C 3.074064 -0.254939 -1.23658
C 1.1924 2.844828 1.23658
C -2.337121 2.01314 1.23658
C -2.63682 -1.600639 1.23658
C 0.707476 -3.00239 1.23658
C 3.074064 -0.254939 1.23658
C -0.73479 3.364808 0.0
C -3.427186 0.340956 0.0
C -1.383327 -3.154086 0.0
C 2.572242 -2.290288 0.0
C 2.97306 1.73861 0.0
C 0.73479 3.364808 0.0
C -2.97306 1.73861 0.0
C -2.572242 -2.290288 0.0
C 1.383327 -3.154086 0.0
C 3.427186 0.340956 0.0
