76
Converted from CML to XYZ
C 3.19213 1.26363 2.35928
C 3.97906 1.450749 1.15442
C 4.38233 0.143649 0.68487
C 4.38233 -0.143649 -0.68487
C 3.856479 -0.839981 1.61529
C 3.495819 -2.09577 1.16468
C 3.032749 -0.14315 2.59668
C 1.802159 -0.68305 3.0487
C 1.492559 -2.05558 2.64936
C 0.69584 0.23536 3.3626
C 2.316519 -2.73369 1.70423
C 0.155719 -2.49199 2.72725
C -0.391681 -3.430339 1.7997
C -0.914441 -1.614889 3.17819
C 0.914441 1.614889 3.17819
C -0.69584 -0.23536 3.3626
C -1.802159 0.68305 3.0487
C -2.141711 -2.125799 2.64593
C -1.492559 2.05558 2.64936
C -3.032749 0.14315 2.59668
C -3.856479 0.839981 1.61529
C -3.19213 -1.26363 2.35928
C -1.816831 -3.212509 1.74396
C 0.346558 -3.82384 0.64772
C -0.346558 -3.82384 -0.64772
C 1.736049 -3.55104 0.68031
C -3.97906 -1.450749 1.15442
C 2.141711 2.125799 2.64593
C 3.59514 2.43179 0.23961
C 3.856479 0.839981 -1.61529
C 3.97906 -1.450749 -1.15442
C 3.59514 -2.43179 -0.23961
C 2.494429 -3.32369 -0.53914
C 1.816831 -3.212509 -1.74396
C 0.391681 -3.430339 -1.7997
C 2.141711 -2.125799 -2.64593
C 3.19213 -1.26363 -2.35928
C 3.032749 0.14315 -2.59668
C 0.914441 -1.614889 -3.17819
C -0.155719 -2.49199 -2.72725
C 0.69584 -0.23536 -3.3626
C -0.155719 2.49199 2.72725
C -3.495819 2.09577 1.16468
C -4.38233 -0.143649 0.68487
C -4.38233 0.143649 -0.68487
C -3.97906 1.450749 -1.15442
C -3.856479 -0.839981 -1.61529
C -2.316519 2.73369 1.70423
C 0.391681 3.430339 1.7997
C -3.495819 -2.09577 -1.16468
C -3.032749 -0.14315 -2.59668
C -3.19213 1.26363 -2.35928
C -1.802159 -0.68305 -3.0487
C -1.492559 -2.05558 -2.64936
C -0.69584 0.23536 -3.3626
C -2.316519 -2.73369 -1.70423
C -1.736049 -3.55104 -0.68031
C -2.494429 -3.32369 0.53914
C -3.59514 -2.43179 0.23961
C 2.494429 3.32369 0.53914
C 3.495819 2.09577 -1.16468
C 1.816831 3.212509 1.74396
C 1.736049 3.55104 -0.68031
C 2.316519 2.73369 -1.70423
C 1.492559 2.05558 -2.64936
C 1.802159 0.68305 -3.0487
C 0.155719 2.49199 -2.72725
C 0.346558 3.82384 -0.64772
C -0.391681 3.430339 -1.7997
C -0.914441 1.614889 -3.17819
C -2.141711 2.125799 -2.64593
C -1.816831 3.212509 -1.74396
C -3.59514 2.43179 -0.23961
C -1.736049 3.55104 0.68031
C -2.494429 3.32369 -0.53914
C -0.346558 3.82384 0.64772
