80
Converted from CML to XYZ
C -3.378155 -0.38208 2.351971
C -2.542466 -1.426087 2.894731
C -2.559403 -2.5282 1.984575
C -3.405858 -2.177263 0.869361
C -3.90396 -0.847038 1.096322
C -1.916888 1.285756 3.390899
C -1.102108 0.248244 3.932848
C -1.370242 -1.119625 3.650893
C -3.051891 0.984119 2.546184
C -0.273257 -3.106132 2.655954
C -1.404705 -3.349494 1.808994
C -0.256803 -2.017584 3.555525
C -1.990858 -3.537875 -0.594176
C -3.108364 -2.632389 -0.440406
C -1.165399 -3.889748 0.515637
C -3.906841 -0.442405 -1.306589
C -4.132425 0.051776 0.012417
C -3.408125 -1.773349 -1.528285
C -3.876447 1.436297 0.245363
C -3.351219 1.896033 1.50264
C -2.548229 -0.400151 -3.197452
C -3.382985 0.408366 -2.341695
C -2.563994 -1.739533 -2.69848
C -2.491589 3.261195 -0.173041
C -2.490327 3.02391 1.235817
C -3.353302 2.282609 -0.793032
C 1.922579 -2.32493 2.779504
C 1.081143 -3.299798 2.16402
C 1.109088 -1.522219 3.632634
C 0.188032 -3.857131 -1.365836
C -1.167404 -3.506283 -1.759038
C 0.189262 -4.092141 0.02711
C 2.491579 -3.261132 0.173216
C 2.490286 -3.023845 -1.235863
C 1.319024 -3.26331 -2.016772
C 1.321331 -3.743221 0.83454
C -0.278927 -2.06495 -3.525999
C -0.263631 -0.741695 -4.019154
C -1.377042 0.137506 -3.813145
C -1.408775 -2.572231 -2.803467
C -1.922489 2.324908 -2.779337
C -1.081102 3.299728 -2.163899
C -1.321337 3.743301 -0.834454
C -3.056218 1.762862 -2.078211
C 2.548283 0.400104 3.19739
C 3.382938 -0.408395 2.341634
C 3.056204 -1.762874 2.078207
C 1.377175 -0.137535 3.813228
C -0.188082 3.857276 1.36589
C -0.189293 4.092153 -0.026986
C 0.279092 2.064948 3.526239
C 0.263804 0.741859 4.019292
C -1.076372 2.408512 3.126952
C 1.917081 -1.285855 -3.391185
C 1.101958 -0.248226 -3.932928
C 1.076317 -2.408452 -3.126948
C 1.370046 1.119677 -3.650956
C 2.542389 1.426215 -2.894791
C 3.8764 -1.43635 -0.245446
C 3.35119 -1.896112 -1.502746
C 3.353156 -2.282675 0.792977
C 3.051734 -0.984175 -2.546251
C 3.37813 0.382037 -2.352053
C 3.408117 1.773266 1.528147
C 3.906757 0.442335 1.306473
C 2.564034 1.739468 2.698374
C 4.132376 -0.051917 -0.012469
C 3.904037 0.846994 -1.096434
C 0.256597 2.017423 -3.555375
C 0.273145 3.10631 -2.655828
C -1.108949 1.522253 -3.632483
C 1.404499 3.349502 -1.808991
C 2.559356 2.528226 -1.984711
C 1.167608 3.50627 1.759053
C 1.408974 2.572252 2.803477
C -1.319004 3.263454 2.016941
C 1.990923 3.537872 0.594157
C 1.165408 3.889766 -0.515611
C 3.10846 2.632344 0.440341
C 3.405953 2.177279 -0.869404
