56
Converted from CML to XYZ
C 8.096111 -0.750281 0.193014
C 6.901628 -0.572248 -0.676343
C 6.384687 0.821202 -0.610551
C 5.092657 1.137496 -0.504045
C 3.988102 0.142571 -0.435895
C 2.98136 0.531395 0.588718
C 1.673478 0.653713 0.356924
C 1.020524 0.420368 -0.960779
C 0.264908 1.631487 -1.385913
C -1.063855 1.741291 -1.343103
C -1.978653 0.668479 -0.862829
C -2.505691 1.005837 0.488264
C -3.799905 1.084675 0.801186
C -5.838481 2.012474 -0.188631
C -7.146007 1.957198 0.070008
C -7.876643 0.723184 0.465204
C -9.073343 0.494765 -0.447897
C -9.816297 -0.756324 -0.05471
C 8.220752 -1.69917 1.122251
H 6.098143 -1.304127 -0.406618
H 7.182792 -0.801869 -1.724249
H 7.14134 1.614061 -0.658102
H 4.786056 2.189654 -0.466979
H 4.385656 -0.871215 -0.194815
H 3.516461 0.053958 -1.441943
H 3.380254 0.720998 1.592557
H 0.99396 0.945109 1.16821
H 0.338353 -0.456672 -0.8737
H 1.771791 0.1562 -1.738803
H 0.874837 2.469073 -1.744554
H -1.550023 2.669154 -1.666723
H -1.443101 -0.30741 -0.806643
H -2.807585 0.527828 -1.592603
H -1.740994 1.194852 1.25282
H -5.373104 2.970783 -0.450134
H -7.755096 2.867729 0.006374
H -8.208352 0.829553 1.517264
H -7.197481 -0.160055 0.446557
H -8.741466 0.386673 -1.499586
H -9.745439 1.376983 -0.43006
O -11.114998 -0.573621 0.281777
O -9.417529 -1.906236 -0.004543
C -4.916132 0.844597 -0.153728
H -4.101988 1.337839 1.824563
H -5.456101 -0.084014 0.142125
H -4.52724 0.659568 -1.181579
H -11.513703 -1.407712 0.509878
H 8.911711 -0.035023 0.028688
C 7.177503 -2.705702 1.456603
H 9.147402 -1.773148 1.705182
H 6.279187 -2.569269 0.812158
H 6.832487 -2.521553 2.493525
C 7.71128 -4.115194 1.322257
H 8.584167 -4.281594 1.967391
H 8.021262 -4.332997 0.292098
H 6.950359 -4.855319 1.600457
