18
Converted from CML to XYZ
C -0.03637 1.310593 0.68924
C -0.947439 1.255538 -0.486674
C -1.644702 0.161347 -0.803211
H -0.052253 2.330628 1.121297
H -1.020803 2.162193 -1.097091
H -2.319913 0.142696 -1.666308
C 1.387069 0.947744 0.30434
H 1.750168 1.674244 -0.45222
C 1.627237 -0.415733 -0.230559
C 0.861738 -1.508108 -0.242005
H 2.630892 -0.517901 -0.67003
H 1.286095 -2.417471 -0.69354
C -0.476654 -1.742279 0.275119
C -1.588686 -1.058064 -0.010175
H -0.549847 -2.636148 0.909896
H -2.558338 -1.403213 0.370826
H -0.395721 0.636826 1.494073
H 2.047526 1.077106 1.187024
