13
Converted from CML to XYZ
H 0.125136 -1.115071 1.64464
C -0.311352 -0.842036 0.667567
H -1.119293 -1.572823 0.486153
C 0.744402 -0.889607 -0.447882
H 1.742336 -1.172114 -0.065408
H 0.493651 -1.631829 -1.227709
C 0.766657 0.492342 -1.018593
H 1.43301 0.755401 -1.839323
C -0.103493 1.301445 -0.403789
H -0.284387 2.352558 -0.625627
C -0.852836 0.595904 0.680937
H -0.692205 1.092691 1.655327
H -1.941633 0.633139 0.493707
