24
Converted from CML to XYZ
H 1.95757 0.860721 -1.288582
C 1.386474 -0.088588 -1.334964
H 1.867069 -0.682229 -2.138488
C 1.5251 -0.848264 -0.021466
H 0.891691 -1.76221 -0.061014
H 2.568272 -1.204896 0.076606
C 1.150965 -0.017636 1.202654
H 1.941421 -0.104759 1.973031
H 1.119992 1.061923 0.931775
C -0.18238 -0.418761 1.822458
H -0.047122 -1.354557 2.401599
H -0.4864 0.349048 2.561334
C -1.2996 -0.637547 0.814957
H -0.959163 -1.379212 0.050807
H -2.162456 -1.102127 1.330744
C -1.769647 0.621979 0.105115
H -2.693047 0.380225 -0.458989
H -2.06616 1.386271 0.85068
C -0.74452 1.223795 -0.848797
H 0.017865 1.784684 -0.262227
H -1.24778 1.982834 -1.478389
C -0.057873 0.187766 -1.733866
H -0.631397 -0.765385 -1.707746
H -0.078871 0.526919 -2.787226
