17
Converted from CML to XYZ
C 0.819393 1.342855 0.212611
C 1.603381 0.276953 0.049144
C 1.204686 -1.118209 -0.278214
C -0.02646 -1.598367 0.405398
C -1.205662 -0.984254 0.299958
C -1.382856 0.261661 -0.492328
C -0.661405 1.435439 0.150429
H 1.30415 2.301624 0.44468
H 2.688278 0.420241 0.141147
H 2.045822 -1.797475 -0.036189
H 1.065094 -1.195952 -1.378108
H 0.070995 -2.511452 1.002962
H -2.090246 -1.381394 0.809104
H -2.459657 0.500987 -0.589013
H -1.015779 0.103823 -1.527296
H -1.03389 1.581832 1.185288
H -0.925843 2.361689 -0.399573
