27
Converted from CML to XYZ
H -0.568066 1.287442 1.050079
C -1.079129 1.46212 0.070111
H -1.58006 2.443771 0.156501
C -0.040423 1.485454 -1.04828
H -0.232047 2.326243 -1.739909
H -0.131127 0.553408 -1.660729
C 1.389244 1.559522 -0.524653
H 1.549705 2.518317 0.006348
H 2.091177 1.568831 -1.381489
C 1.724305 0.404807 0.412351
H 2.759534 0.510946 0.785308
H 1.061076 0.490626 1.309486
C 1.525071 -0.96156 -0.238384
H 2.499074 -1.412092 -0.503557
H 0.968075 -0.838382 -1.200986
C 0.730343 -1.92261 0.63814
H 1.296652 -2.149315 1.562748
H 0.61748 -2.889536 0.109739
C -0.639812 -1.368924 1.01192
H -0.479119 -0.449028 1.628448
H -1.17036 -2.086361 1.664443
C -1.489879 -1.02181 -0.207536
H -0.851116 -1.044188 -1.125983
H -2.276414 -1.782864 -0.362804
C -2.119437 0.363236 -0.113489
H -2.838178 0.396975 0.728679
H -2.716569 0.554974 -1.026502
