14
Converted from CML to XYZ
C 0.188378 1.399615 0.010709
C 1.383849 0.517281 0.029398
C 1.060205 -0.932887 0.016067
C -0.188334 -1.39953 -0.010473
C -1.383838 -0.517279 -0.029443
C -1.06015 0.932932 -0.015825
H 0.386464 2.477217 0.019906
H 1.992079 0.746716 0.928391
H 2.025905 0.755295 -0.843439
H 1.916342 -1.616532 0.029309
H -0.386325 -2.477136 -0.019644
H -2.026501 -0.755482 0.842866
H -1.991535 -0.746485 -0.928781
H -1.91654 1.616275 -0.029041
