18
Converted from CML to XYZ
C -3.992303 -2.531468 1.820925
C -4.543631 -1.109979 1.890097
C -2.513493 -2.580787 2.195141
H -4.123807 -2.923813 0.804471
H -4.564588 -3.182426 2.490916
C -1.686607 -1.614567 1.351324
H -2.398017 -2.327479 3.256702
H -2.134062 -3.600486 2.067136
C -3.716666 -0.143336 1.046805
H -4.546811 -0.771253 2.933961
H -5.584414 -1.10065 1.54828
C -2.237706 -0.192988 1.420464
H -1.6839 -1.953531 0.307531
H -0.645702 -1.624017 1.692751
H -1.665547 0.457762 0.750154
H -2.105715 0.199482 2.436801
H -3.832475 -0.395862 -0.014896
H -4.095923 0.876337 1.175616
