18
Converted from CML to XYZ
H 1.812971 -1.654244 -0.291127
C 1.056364 -0.956878 0.116817
H 1.209085 -0.961456 1.214592
C -0.344965 -1.454278 -0.217484
H -0.334494 -2.010193 -1.175165
H -0.661852 -2.191334 0.545818
C -1.359695 -0.320531 -0.3069
H -1.427405 0.046768 -1.350431
H -2.370569 -0.696774 -0.058431
C -0.990392 0.832959 0.608799
H -1.785548 1.602783 0.592719
H -0.947973 0.471058 1.655551
C 0.344922 1.454486 0.216704
H 0.183427 2.294254 -0.486878
H 0.812795 1.90794 1.112185
C 1.293695 0.444298 -0.417662
H 1.166342 0.443268 -1.518695
H 2.34329 0.747871 -0.240411
