20
Converted from CML to XYZ
C 1.698086 -0.591465 -0.367278
C 0.911127 -1.596635 0.019151
H 2.524294 -0.824463 -1.052426
H 1.107485 -2.606843 -0.366453
C -0.194406 -1.553792 0.963115
C -1.356402 -0.91152 0.835319
H -0.020857 -2.17065 1.855942
H -2.101166 -1.039618 1.632329
C 1.62337 0.839483 0.029693
C -1.805387 -0.038074 -0.281035
H 2.169169 0.963467 0.987073
C 0.225478 1.432826 0.155983
H 2.195636 1.429144 -0.715341
H -2.228557 -0.682779 -1.077912
C -0.753811 0.889871 -0.877263
H -2.654692 0.573558 0.086168
H -0.165884 1.259919 1.179027
H 0.302248 2.533803 0.06022
H -1.272453 1.728573 -1.382005
H -0.203279 0.365197 -1.684307
