13
Converted from CML to XYZ
C -0.669742 0.900473 -0.025613
C 0.579776 1.442426 -0.002838
N 1.699071 0.620043 0.008856
C 1.553816 -0.819013 0.005736
N 0.244883 -1.363167 -0.010088
C -0.801688 -0.537424 -0.043002
O 2.573227 -1.486915 0.022953
N -2.062913 -1.1384 -0.189413
H -2.107199 -2.107147 0.032162
H -2.801621 -0.608013 0.211077
H 0.746215 2.527666 0.006725
H -1.558942 1.538562 -0.04158
H 2.605117 1.030909 0.025026
