16
Converted from CML to XYZ
H 1.174192 0.405596 -0.775018
C 0.289471 -0.172309 -0.401865
C -0.641834 -0.384002 -1.596884
O -0.807635 0.356365 -2.547718
O -1.36844 -1.524113 -1.596762
H -1.915991 -1.564405 -2.375285
C -0.468913 0.651261 0.646382
C 0.413857 1.084437 1.80078
H -0.90184 1.556136 0.172044
N 0.83688 -1.41004 0.193457
H 1.265813 -1.96679 -0.513531
H 0.121111 -1.932199 0.652705
O 1.469007 1.91213 1.623625
O 0.273951 0.802607 2.970569
H -1.33146 0.077162 1.044383
H 1.59183 2.108165 0.703118
