16
Converted from CML to XYZ
C -0.646064 0.645725 -0.138171
C 0.435368 -0.392143 0.202781
C -0.195045 1.80076 -1.024438
O -1.782615 0.559551 0.281281
C -0.134411 -1.627754 0.93963
O 1.061702 -0.735645 -1.017235
O -0.964618 2.961525 -0.904296
O 0.885809 -2.483032 1.37837
H 1.190161 0.122669 0.850302
H -0.16462 1.451246 -2.076309
H 0.819213 2.140988 -0.749876
H -0.729735 -2.269118 0.265534
H -0.7838 -1.314868 1.778898
H 1.555708 -1.530208 -0.859904
H 1.329265 -2.054579 2.100053
H -1.876316 2.724883 -1.026621
