24
Converted from CML to XYZ
C -0.937548 -0.986744 -0.157164
C -2.082109 -0.409947 0.685503
C -1.710283 -0.056766 2.120532
O -1.373852 -1.857968 -1.165137
H -0.325709 -1.669348 0.479607
C -0.062339 0.18817 -0.710245
O -3.205556 -0.267207 0.24669
O -2.485278 0.95396 2.693951
H -0.682521 0.348436 2.175537
H -1.744616 -0.980203 2.732732
C 1.455528 -0.112747 -0.507101
H -0.3286 1.141872 -0.195436
O -0.365041 0.489177 -2.046597
H 1.713758 -1.108634 -0.937995
C 2.315838 1.003917 -1.147158
O 1.747514 -0.300313 0.856331
O 3.658441 0.966728 -0.755358
H 1.991436 2.009743 -0.823802
H 1.775703 0.556883 1.265086
H -3.40011 0.72382 2.58213
H -0.098528 -0.252171 -2.578703
H -2.073763 -1.429311 -1.64598
H 2.234023 0.959121 -2.250327
H 3.983613 0.089531 -0.917097
