20
Converted from CML to XYZ
C 1.800804 -0.610574 -1.722456
C 0.848519 -0.952214 -0.57515
C 0.213131 0.304211 0.031427
H 0.986301 1.084021 0.176454
H -0.517914 0.748245 -0.674999
C -0.444506 -0.021248 1.36341
H -1.242349 -0.780521 1.227676
H 0.299562 -0.484729 2.044571
C -1.002219 1.228174 2.013326
O -0.438016 1.855981 2.902398
N -2.246007 1.707054 1.591544
H -2.68759 2.450471 2.0766
H -2.780366 1.19053 0.937025
N -0.207622 -1.90689 -0.987488
O 1.512212 0.47492 -2.475222
O 2.799438 -1.220949 -2.058673
H 1.460437 -1.465792 0.213702
H 0.205006 -2.744777 -1.332575
H -0.797686 -1.501318 -1.683702
H 2.238866 0.645403 -3.067868
