24
Converted from CML to XYZ
C 2.767307 -0.857649 -0.085049
C 1.642857 0.19231 0.091222
O 3.963167 -0.474784 0.533797
H 2.938351 -1.085173 -1.156221
H 2.51335 -1.802393 0.42626
H 1.632722 0.57613 1.139157
C 0.259233 -0.433795 -0.245293
O 1.912314 1.364678 -0.640315
H 4.219483 0.362887 0.167134
C -0.906935 0.464006 0.271243
H 0.194764 -1.425788 0.268488
O 0.223283 -0.643129 -1.639637
H 1.946235 1.129933 -1.560745
C -2.191363 -0.372325 0.542241
O -1.266768 1.486971 -0.629418
H -0.591175 0.931309 1.238423
H -0.665794 -0.892012 -1.859352
C -3.184076 0.470878 1.346345
H -1.928505 -1.2737 1.145456
O -2.729537 -0.94156 -0.621584
H -0.462454 1.905819 -0.909184
O -4.297003 0.733145 0.961462
H -2.824365 0.834407 2.322603
H -3.165093 -0.250163 -1.107032
