20
Converted from CML to XYZ
C 2.052827 -0.730988 0.530853
C 1.017817 0.262764 -0.054552
C -0.427294 -0.273287 0.152616
C -1.482186 0.819221 -0.195695
C -2.877445 0.192747 -0.283264
O 3.311713 -0.155005 0.728417
O -1.40728 1.893067 0.7054
O -3.660608 0.216529 0.636968
H 2.14856 -1.634499 -0.105302
H 1.76487 -1.058555 1.545021
O 1.316398 0.56612 -1.394273
O -0.693068 -1.383726 -0.681882
H -1.232308 1.310163 -1.16528
H -3.139482 -0.293781 -1.23514
H 3.570515 0.256253 -0.087823
H -1.784101 1.611332 1.531105
H 1.116057 1.26047 0.435595
H -0.546883 -0.571757 1.224508
H 1.100026 -0.194338 -1.921069
H -0.148128 -2.09273 -0.366202
