15
Converted from CML to XYZ
O 1.274058 -0.241767 2.267462
C 0.665293 0.648146 1.700872
O 0.416255 1.756784 2.436073
H 0.757743 1.646624 3.318129
C 0.176456 0.715094 0.275846
H -0.642751 1.458477 0.18049
H 1.013551 1.097242 -0.343229
C -0.2852 -0.65948 -0.233017
H 0.438153 -1.457029 0.075676
O -1.541079 -0.901432 0.361039
H -1.899463 -1.68963 -0.026136
C -0.375475 -0.686814 -1.762528
O -1.29767 -1.082649 -2.451292
O 0.72172 -0.265885 -2.430185
H 0.57841 -0.33768 -3.3692
