20
Converted from CML to XYZ
C 1.969676 0.311569 -1.577441
C 1.076813 -0.604309 -0.743482
C 0.282665 0.257205 0.250005
H 0.965425 0.989739 0.727599
H -0.480556 0.862436 -0.283201
C -0.379103 -0.592748 1.319008
H -1.048726 -1.342987 0.857371
H 0.381941 -1.165801 1.883898
S -1.2777 0.375096 2.570177
C -2.781808 0.859915 1.705778
H -2.590181 1.512854 0.84638
H -3.360135 0.001998 1.34457
H -3.408871 1.414113 2.414603
N 0.16883 -1.426257 -1.576297
O 3.129613 0.681331 -0.992397
O 1.77539 0.741139 -2.700892
H 1.724613 -1.3217 -0.177855
H 0.701561 -1.970736 -2.220262
H -0.467936 -0.842732 -2.077579
H 3.618487 1.259875 -1.569982
