23
Converted from CML to XYZ
C 2.675759 -0.846384 -1.481216
C 1.204978 -0.62531 -1.112704
N 0.443989 -0.406157 -2.372955
C 0.978475 0.571626 -0.17439
H 1.800065 0.625455 0.574313
H 1.026081 1.528092 -0.73581
C -0.329895 0.451127 0.538215
C -1.43377 1.193072 0.116261
H -1.344941 1.867264 -0.744095
C -2.646769 1.079719 0.787233
H -3.510298 1.664685 0.453629
C -2.764424 0.226929 1.879275
H -3.720084 0.139962 2.406611
C -1.665818 -0.514771 2.30222
H -1.756408 -1.18615 3.162529
C -0.451658 -0.404167 1.635238
H 0.413453 -0.987473 1.970949
O 3.097057 -1.675038 -2.261351
O 3.696779 -0.153318 -0.932177
H 0.880952 -1.557119 -0.574146
H -0.522012 -0.291228 -2.147547
H 0.561603 -1.186502 -2.983009
H 3.366885 0.485689 -0.307072
