20
Converted from CML to XYZ
C 1.013677 0.274984 0.104512
C 2.299977 -0.579105 -7.9e-05
C -0.20885 -0.642038 0.419735
C -1.492596 0.201214 0.516803
C -2.379054 0.196679 -0.718284
O 0.77314 1.046343 -1.046089
O 3.392119 0.127024 -0.516065
O -0.002971 -1.406525 1.579056
O -1.7561 0.835112 1.519295
O -3.665581 0.70717 -0.530491
H 1.119291 1.056944 0.893123
H 2.183602 -1.412108 -0.717288
H 2.545583 -1.01382 0.98797
H -0.31898 -1.429791 -0.361405
H -2.565904 -0.836701 -1.062336
H -1.854869 0.74061 -1.530856
H 0.977338 0.510594 -1.803103
H 3.522542 0.895232 0.02637
H 0.007754 -0.812951 2.321244
H -3.590117 1.541134 -0.082113
