24
Converted from CML to XYZ
C -0.745637 -0.467789 -0.042824
C -2.127194 0.019403 0.421921
C -3.229318 -1.031486 0.4173
H -0.863262 -0.776858 -1.112977
O -0.437799 -1.611947 0.722545
C 0.367195 0.621167 0.024433
O -2.330854 1.169594 0.761238
O -4.526963 -0.517346 0.342867
H -3.10609 -1.676582 1.311043
H -3.16164 -1.67561 -0.477475
C 1.670337 0.071987 -0.626864
O 0.6951 0.99235 1.344825
H 0.028357 1.520986 -0.544858
H 1.432079 -0.337476 -1.637679
C 2.736549 1.18527 -0.732741
O 2.125708 -1.079556 0.052359
O 3.95447 0.740909 -1.257724
H 3.026522 1.582409 0.257313
H 2.335296 2.02488 -1.332981
H 3.779071 0.333413 -2.097072
H 2.599459 -0.787283 0.823531
H -4.628409 0.128634 1.031813
H 0.504379 -1.759108 0.610764
H -0.097354 1.330041 1.741244
