24
Converted from CML to XYZ
C -0.837208 -0.519326 -0.580046
C -2.228573 -0.135611 -0.045263
C -2.737837 -0.962729 1.125305
O -0.828831 -0.584226 -1.98271
H -0.583997 -1.567894 -0.29732
C 0.247436 0.468502 -0.045761
O -2.863736 0.777279 -0.534254
O -4.100643 -0.83129 1.400492
H -2.133046 -0.717645 2.022585
H -2.624549 -2.042897 0.920975
C 1.674056 -0.006663 -0.4549
O 0.128388 0.671556 1.339186
H 0.060667 1.492295 -0.447649
H 1.633777 -0.487225 -1.461244
C 2.638547 1.202375 -0.469128
O 2.112643 -1.066398 0.361923
O 3.979868 0.83795 -0.627725
H 2.64057 1.741768 0.495797
H 2.330889 1.916204 -1.25763
H 4.047865 0.323098 -1.422571
H 2.60157 -0.694612 1.086706
H -4.31144 0.09461 1.420322
H -1.131273 0.253087 -2.315667
H 0.284857 -0.162208 1.768579
