20
Converted from CML to XYZ
C 2.019753 -0.696235 0.896996
C 1.021171 0.26124 0.202894
C -0.399807 -0.372486 0.172182
C -1.487595 0.687604 -0.179901
C -2.859256 0.163242 0.248158
O 3.218021 -0.059769 1.240675
O 1.529849 0.49418 -1.094124
O -0.495215 -1.502392 -0.654945
O -1.421022 1.107077 -1.518501
O -3.762591 -0.034794 -0.52739
H 2.209962 -1.593505 0.275925
H 1.624423 -1.031955 1.871807
H 0.971923 1.226425 0.765843
H -0.630092 -0.795018 1.178852
H -1.284083 1.634234 0.374217
H -2.985637 -0.031583 1.325187
H 3.638927 0.209031 0.433329
H 1.006511 1.187499 -1.47544
H -0.07378 -1.297069 -1.481568
H -1.841462 0.444273 -2.054195
