27
Converted from CML to XYZ
C 0.982374 -0.225305 0.77604
C 2.452867 -0.668998 0.655248
H 2.535048 -1.709594 0.31493
H 3.008886 -0.043707 -0.055767
H 2.959092 -0.596446 1.626649
C 0.268218 -1.160441 1.760174
H 0.165 -2.174263 1.351945
H 0.82848 -1.23443 2.701094
H -0.742678 -0.79664 2.004967
C 0.944914 1.20776 1.313156
H 1.386291 1.254907 2.316734
H 1.508893 1.894092 0.667207
H -0.0851 1.593919 1.381498
O 0.508458 -0.370384 -0.570124
C -0.784153 0.081081 -0.997984
C -1.954704 -0.470394 -0.179889
H -1.954195 -1.568707 -0.166711
H -1.920027 -0.130108 0.867838
H -2.91118 -0.14194 -0.605889
C -0.884374 1.61004 -1.06967
H -0.983562 2.057749 -0.067801
H 0.002342 2.051425 -1.542938
H -1.761788 1.914139 -1.65462
C -0.871986 -0.484961 -2.428257
H -0.077166 -0.085098 -3.071547
H -0.785941 -1.579605 -2.438092
H -1.83401 -0.224091 -2.888193
