16
Converted from CML to XYZ
C 1.049475 0.747098 -0.358383
N 0.095098 -0.326317 0.017053
C -1.322228 0.065112 -0.187933
C 2.472377 0.351948 -0.018537
H 0.79718 1.717551 0.123474
H 0.942963 0.909464 -1.449439
H 0.240277 -0.593323 0.968911
H -1.560493 1.038941 0.294265
C -2.261482 -1.010161 0.3198
H -1.46257 0.219263 -1.276349
H 2.619908 0.2232 1.062706
H 3.176711 1.124982 -0.352594
H 2.76675 -0.588999 -0.502278
H -2.07638 -1.980739 -0.159514
H -3.305033 -0.738301 0.114041
H -2.172551 -1.159715 1.404777
