21
Converted from CML to XYZ
H 3.886576 0.258691 2.373046
C 3.39368 0.17815 1.39593
H 3.727258 1.030634 0.789186
H 3.770618 -0.733237 0.912816
C 1.889405 0.15136 1.543856
H 1.58482 -0.696565 2.188828
H 1.541475 1.06296 2.068934
C 1.218695 0.041537 0.177133
H 1.491496 0.897801 -0.471568
H 1.533732 -0.88167 -0.349018
O -0.182786 0.023757 0.401336
C -0.936149 -0.077228 -0.797337
H -0.707736 0.776761 -1.465886
H -0.664386 -1.002682 -1.343289
C -2.410074 -0.08599 -0.400543
H -2.615811 -0.928567 0.289014
H -2.658654 0.831014 0.169619
C -3.288699 -0.190727 -1.62625
H -3.131275 0.652168 -2.312463
H -3.090706 -1.111872 -2.190515
H -4.351477 -0.196294 -1.352829
