12
Converted from CML to XYZ
C 1.840132 -0.455531 -0.343419
C 0.538835 0.247068 -0.305846
C -0.538777 -0.246981 0.306167
C -1.840109 0.455562 0.3435
H -0.501409 -1.216914 0.817807
H 1.822572 -1.419452 0.182469
H 2.623536 0.160019 0.11902
H 2.142653 -0.649939 -1.381256
H 0.501387 1.216742 -0.817938
H -1.822594 1.419102 -0.183063
H -2.14281 0.650536 1.381167
H -2.623417 -0.160212 -0.118609
