21
Converted from CML to XYZ
C 3.700018 0.22382 1.076176
C 2.233657 0.282954 1.263508
C 1.374111 -0.385733 0.493304
C -0.098533 -0.340583 0.69837
C -0.826799 -0.077456 -0.611606
C -2.334028 -0.061637 -0.412583
C -3.061046 0.191414 -1.713882
H 4.106791 1.228616 0.899543
H 3.998994 -0.408165 0.229332
H 4.186762 -0.176021 1.975995
H 1.879876 0.915867 2.08714
H 1.7258 -1.015057 -0.334416
H -0.377459 0.427359 1.448283
H -0.422874 -1.310489 1.128044
H -0.553123 -0.847636 -1.360635
H -0.491821 0.887073 -1.042046
H -2.608012 0.713198 0.330928
H -2.666292 -1.023816 0.025701
H -2.840669 -0.585066 -2.458538
H -2.776862 1.155784 -2.155726
H -4.14849 0.205574 -1.566893
