18
Converted from CML to XYZ
C 3.14648 0.213671 0.722296
C 1.680309 0.289182 0.905185
C 0.81586 -0.375715 0.137334
C -0.656879 -0.312155 0.336171
C -1.372193 0.021593 -0.965306
C -2.872238 0.050925 -0.777978
H 3.441899 -0.442992 -0.106847
H 3.560948 1.210409 0.519575
H 1.330972 0.932082 1.722981
H 1.162819 -1.014495 -0.6851
H -0.927646 0.427681 1.116644
H -1.003078 -1.293112 0.72102
H -1.10211 -0.717443 -1.745653
H -1.01794 0.999182 -1.347017
H -3.256561 -0.918725 -0.434328
H -3.386211 0.293457 -1.716739
H -3.173423 0.801957 -0.035482
H 3.628992 -0.165502 1.633243
