24
Converted from CML to XYZ
C 4.11918 0.044284 1.358298
C 2.693002 -0.289323 1.740594
C 1.810242 -0.333389 0.54359
C 0.659125 0.335521 0.466538
C -0.218834 0.29503 -0.733685
C -1.672539 0.06954 -0.344405
C -2.576464 0.060923 -1.566869
C -4.023867 -0.149053 -1.183557
H 4.52935 -0.682922 0.645022
H 4.775228 0.048162 2.238054
H 4.190241 1.034728 0.890556
H 2.320143 0.43979 2.487679
H 2.652122 -1.278034 2.240588
H 2.161402 -0.958206 -0.287726
H 0.309427 0.961488 1.297771
H 0.109043 -0.48924 -1.445896
H -0.113502 1.256211 -1.277392
H -2.003432 0.855545 0.364128
H -1.771668 -0.886916 0.206232
H -2.252305 -0.732307 -2.269665
H -2.466662 1.01304 -2.123453
H -4.384827 0.643274 -0.514226
H -4.170607 -1.105541 -0.664388
H -4.673796 -0.152606 -2.067791
