15
Converted from CML to XYZ
C 2.047298 0.013316 1.108232
C 1.331008 0.293718 -0.195445
C -0.142711 0.354622 -1.5e-05
C -1.003988 -0.323154 -0.759925
C -2.470597 -0.251829 -0.578473
H 1.823016 0.774522 1.8673
H 1.757331 -0.959124 1.526697
H 1.604235 -0.470908 -0.950068
H 1.667349 1.262915 -0.615958
H -0.492214 1.002081 0.814456
H -0.651866 -0.974873 -1.569473
H -2.769662 0.417122 0.239481
H -2.879813 -1.247168 -0.358913
H 3.135608 -0.000446 0.967847
H -2.954996 0.109207 -1.495742
