10
Converted from CML to XYZ
H 1.408675 -0.160093 0.827057
C 0.773787 -0.077623 -0.072111
H 1.066642 0.849125 -0.605433
O 1.131128 -1.207165 -0.817493
H 0.617832 -1.196739 -1.61608
C -0.725352 -0.057057 0.283874
H -1.016016 -0.932806 0.889698
H -1.349636 -0.061309 -0.632238
O -1.065536 1.024163 1.105157
H -0.841525 1.819505 0.637568
