10
Converted from CML to XYZ
S 1.261175 -1.01897 1.534539
C 0.669001 0.179211 0.304025
C -0.668799 -0.179359 -0.304425
S -1.261125 1.019712 -1.534061
H 1.466197 -2.057406 0.766432
H 1.421527 0.335953 -0.491571
H 0.602913 1.139151 0.853937
H -1.421505 -0.33667 0.490868
H -0.602631 -1.138953 -0.854845
H -1.466753 2.05733 -0.764901
