9
Converted from CML to XYZ
C 0.943975 -0.102603 -0.075122
C -0.402355 0.548541 0.115926
S -1.812718 -0.398119 -0.534662
H 1.014778 -1.059179 0.46034
H 1.747916 0.542792 0.303883
H 1.15734 -0.302371 -1.13387
H -0.444212 1.51679 -0.419752
H -0.560877 0.783596 1.184174
H -1.643847 -1.529447 0.099083
