12
Converted from CML to XYZ
H 2.353931 0.107911 1.136286
C 1.780182 0.060849 0.202248
H 2.056356 0.934958 -0.401919
H 2.110595 -0.831018 -0.346137
C 0.293709 0.024396 0.499739
H 0.027826 -0.857806 1.114525
H -0.026822 0.923934 1.061033
O -0.385789 -0.033894 -0.749285
C -1.782163 -0.073852 -0.628194
H -2.124458 -0.96308 -0.084892
H -2.180258 0.822966 -0.137954
H -2.123108 -0.115365 -1.665449
