10
Converted from CML to XYZ
C 1.059255 0.420737 -0.098215
C -0.100498 -0.550637 -0.003255
N -1.395679 0.147834 -0.161227
H 1.055274 0.976544 -1.045381
H 1.045983 1.16067 0.714035
H -0.034779 -1.120406 0.949374
H -0.0377 -1.303292 -0.814304
H -1.468262 0.882001 0.51226
H -2.140359 -0.500806 -0.01682
H 2.016764 -0.112645 -0.036468
