18
Converted from CML to XYZ
C 2.935033 0.319593 1.424102
C 2.076157 -0.352994 0.667354
C 0.602579 -0.308018 0.870762
C -0.124348 -0.043225 -0.439458
C -1.631724 -0.027173 -0.241302
C -2.358165 0.229106 -1.542255
H 2.629739 0.964982 2.243402
H 2.425693 -0.990326 -0.154161
H 0.324871 0.459601 1.621386
H 0.277457 -1.27795 1.299461
H 0.149628 -0.812622 -1.189218
H 0.211133 0.92175 -0.868554
H -1.905688 0.74613 0.503801
H -1.96459 -0.990234 0.194646
H -2.137499 -0.545458 -2.28887
H -2.073976 1.194681 -1.981522
H 4.00932 0.269408 1.275975
H -3.445623 0.242751 -1.395551
