21
Converted from CML to XYZ
C 3.407217 0.49639 -0.051528
C 2.178596 -0.384423 -0.026618
C 0.902197 0.441591 -0.016821
C -0.331417 -0.446076 0.007941
C -1.605192 0.385978 0.019289
C -2.832563 -0.504274 0.043096
S -4.323018 0.549458 0.060831
H 3.427894 1.137572 -0.942856
H 3.450617 1.156253 0.82525
H 2.205729 -1.046911 0.861434
H 2.181652 -1.062878 -0.902927
H 0.874669 1.104176 -0.905389
H 0.898594 1.12052 0.859771
H -0.302667 -1.10956 0.895863
H -0.327772 -1.123586 -0.869763
H -1.632967 1.048837 -0.869643
H -1.60842 1.062625 0.898238
H -2.812472 -1.164896 0.928974
H -2.839843 -1.173992 -0.836087
H -5.23742 -0.383988 0.077996
H 4.326583 -0.102816 -0.05705
