20
Converted from CML to XYZ
H 3.665157 -0.34584 1.672756
C 3.056718 -0.276527 0.762125
H 3.415129 0.591682 0.193118
H 3.266171 -1.169791 0.158659
C 1.585853 -0.158726 1.091933
H 1.262556 -1.029856 1.695949
H 1.411604 0.728001 1.733504
C 0.738973 -0.060149 -0.166787
H 1.062782 0.810393 -0.772233
H 0.912033 -0.94772 -0.808251
C -0.739005 0.059697 0.166867
H -1.062709 -0.81074 0.772487
H -0.912213 0.947504 0.808017
C -1.585929 0.157482 -1.091883
H -1.261387 1.026911 -1.697699
H -1.413222 -0.730677 -1.731847
C -3.056576 0.278006 -0.762086
H -3.416754 -0.590118 -0.194096
H -3.264425 1.171129 -0.1578
H -3.664764 0.349342 -1.672737
