12
Converted from CML to XYZ
C 0.016662 0.258849 -0.389607
C -1.283232 -0.388018 0.068475
H 0.02199 0.331608 -1.506019
C 1.223245 -0.547987 0.069937
C 0.103591 1.62173 0.118107
H -1.33137 -0.477638 1.161778
H -1.377354 -1.399154 -0.348786
H 2.165249 -0.090478 -0.257643
H 1.186317 -1.564493 -0.343238
H 1.261137 -0.638722 1.163547
N 0.172993 2.706605 0.519181
H -2.159227 0.187699 -0.255732
