14
Converted from CML to XYZ
C 1.631469 1.36062 -0.051559
C 0.310954 1.228238 0.379801
C -0.349016 0.014974 0.169995
C 0.327693 -1.032541 -0.458514
C 1.64838 -0.832636 -0.863144
N 2.282385 0.344633 -0.661768
C -1.751061 -0.132399 0.631196
O -2.48532 -1.090145 0.015988
O -2.333938 0.50345 1.492358
H 2.204864 2.285637 0.081546
H -0.197028 2.061869 0.879541
H -0.160911 -1.997187 -0.636703
H 2.235643 -1.612877 -1.361587
H -3.364112 -1.101637 0.382849
