25
Converted from CML to XYZ
C 1.517688 -0.726804 0.166708
C 1.668088 -2.091804 -0.042392
C 0.562788 -2.942904 0.069608
C -0.692412 -2.411104 0.390608
C -0.834112 -1.046304 0.596108
C 0.267788 -0.194804 0.485108
N 0.720088 -4.413704 -0.154292
O 1.814288 -4.863004 -0.433692
O -0.248712 -5.140804 -0.052592
C 0.103188 1.272396 0.719008
C -0.600612 1.955696 -0.465592
C -1.059012 3.343996 -0.022792
O -0.514512 4.417096 -0.209092
O -2.226712 3.376796 0.656308
N 0.283588 1.995796 -1.651492
H 2.387588 -0.065304 0.072008
H 2.660088 -2.491204 -0.296992
H -1.571612 -3.064504 0.482708
H -1.818712 -0.633104 0.847508
H 1.086388 1.747296 0.917908
H -0.496112 1.422396 1.640508
H -1.499012 1.352696 -0.756692
H -2.440812 4.272396 0.900008
H 1.121988 2.497696 -1.445692
H -0.191212 2.431096 -2.412792
