26
Converted from CML to XYZ
N 1.15458 -2.987622 -0.986742
C 1.630637 -1.614994 -1.281822
C 3.154959 -1.643142 -1.291372
O 3.920351 -1.973858 -0.404581
O 3.723884 -1.226157 -2.444921
C 1.165332 -0.538577 -0.288943
H 1.766587 0.380778 -0.441211
H 1.372172 -0.857767 0.753794
C -0.310007 -0.208159 -0.455518
H -0.930651 -1.111668 -0.285861
H -0.51114 0.099572 -1.502779
C -0.716641 0.898386 0.513514
H -0.118006 1.814539 0.319257
H -0.48671 0.594074 1.554937
N -2.179645 1.155575 0.409416
H -2.42966 1.330879 -0.542819
C -2.678418 2.203447 1.283479
N -3.188286 3.258289 0.724049
H -3.609214 3.933416 1.312056
N -2.545026 1.992192 2.69906
H -2.426057 1.032005 2.938636
H -3.302505 2.395163 3.206794
H 0.15676 -3.002297 -1.01842
H 1.462897 -3.275251 -0.081362
H 1.251586 -1.363699 -2.305761
H 4.672218 -1.285123 -2.382877
