20
Converted from CML to XYZ
H 0.361737 -1.639717 -0.445948
C 4.7e-05 -0.610023 -0.224398
O 0.25428 -0.429884 1.196142
C -0.956429 -0.191235 1.793813
O -0.725654 -0.024946 3.097171
H -1.559483 0.172934 3.510129
C -2.038912 -0.237681 0.959139
C -1.536178 -0.506244 -0.401564
O -2.153955 -0.623861 -1.435437
O -3.336978 -0.117351 1.373471
H -3.792643 0.291992 0.647853
C 0.775329 0.415174 -1.076033
H 0.502203 0.22435 -2.145175
O 0.341383 1.705992 -0.700874
H 0.74581 2.310808 -1.308293
C 2.311008 0.280399 -0.892314
H 2.838223 1.144029 -1.337503
H 2.589509 0.234533 0.177984
O 2.83919 -0.801651 -1.605721
H 2.541513 -1.597618 -1.182442
