20
Converted from CML to XYZ
C 0.509262 -1.239644 -0.531499
N 1.942547 -1.333987 -0.163111
C -0.088088 0.175014 -0.460238
C -0.328611 0.613381 0.975141
C -0.985277 1.976787 1.060003
O -1.458476 2.608562 0.122556
N -1.072459 2.574187 2.320049
C 0.344907 -1.762244 -1.953649
O 0.956718 -1.454806 -2.959441
O -0.631619 -2.685619 -2.107206
H -0.037264 -1.911831 0.178917
H 2.069492 -0.956817 0.752787
H 2.505284 -0.82464 -0.812346
H -1.048378 0.198746 -1.015125
H 0.567326 0.903954 -0.98012
H 0.626587 0.628386 1.53995
H -0.976818 -0.123259 1.49371
H -1.50172 3.460251 2.434767
H -0.714599 2.117352 3.121582
H -0.678814 -2.963775 -3.016726
