19
Converted from CML to XYZ
N 0.285747 -2.068682 -0.136314
C 0.57309 -0.720171 -0.700978
C 0.145135 0.38756 0.269462
H 0.460146 0.1419 1.3045
H 0.680041 1.324399 0.01069
C -1.357807 0.629975 0.216083
H -1.68139 0.859977 -0.819225
H -1.919912 -0.276857 0.519332
C -1.727605 1.790514 1.107165
O -1.7126 2.980418 0.851618
O -2.136363 1.45404 2.352569
H -2.336931 2.237746 2.85496
C 2.077142 -0.659269 -0.954652
O 2.474213 -1.306372 -2.077906
O 2.957288 -0.117422 -0.315823
H 0.393017 -2.759613 -0.847426
H -0.64808 -2.087987 0.215885
H 0.053951 -0.554247 -1.683832
H 3.420918 -1.255912 -2.166109
