12
Converted from CML to XYZ
H 1.861831 -0.439178 0.591343
C 1.236657 -0.57995 -0.299237
H 1.450328 0.245965 -0.991381
H 1.559857 -1.508825 -0.787271
C -0.241383 -0.648808 0.07707
H -0.444977 -1.517396 0.746242
C -0.637149 0.643167 0.801197
O -0.715344 0.834814 1.999477
O -0.913746 1.706962 0.01245
H -1.162497 2.453776 0.548733
O -1.076391 -0.923959 -1.015899
H -0.917187 -0.266569 -1.682725
