24
Converted from CML to XYZ
N 1.690133 -2.251777 -0.099209
C 1.46725 -1.113139 -1.01954
C 2.752673 -0.652785 -1.703443
O 2.588918 -0.027506 -2.890236
C 0.848565 0.083589 -0.283467
C -0.579288 -0.199006 0.157085
C -1.180016 1.009449 0.858878
C -2.604998 0.714068 1.313815
N -3.16841 1.864544 2.054045
O 3.903836 -0.783063 -1.325923
H 2.243617 -1.966572 0.681432
H 2.150339 -2.99235 -0.583745
H 0.754273 -1.477752 -1.802279
H 3.434693 0.236267 -3.240055
H 0.860438 0.967541 -0.953405
H 1.468313 0.365089 0.593056
H -0.605884 -1.079381 0.830274
H -1.198975 -0.475514 -0.720107
H -1.164225 1.8859 0.17885
H -0.550454 1.294397 1.726041
H -2.61376 -0.155813 2.001348
H -3.224738 0.419343 0.438277
H -4.108944 1.658252 2.316431
H -3.163361 2.676219 1.471878
