15
Converted from CML to XYZ
O 0.85963 -0.497737 2.502827
C 1.135439 0.213398 1.554533
O 2.383527 0.735737 1.538759
C 0.263654 0.620635 0.392974
C -0.285153 -0.609286 -0.3527
C -1.387425 -0.136553 -1.308071
O 0.708089 -1.320677 -1.037463
H 0.815226 1.286078 -0.303788
H -0.577182 1.222077 0.792955
H -0.675001 -1.374856 0.360224
H 1.060007 -0.762511 -1.721855
H 2.874995 0.435672 2.297149
O -2.640399 -0.199451 -0.81205
O -1.265295 0.289227 -2.44178
H -3.27011 0.098246 -1.461714
