17
Converted from CML to XYZ
H -0.130966 -1.076545 1.635723
C -0.15726 -0.639016 0.608183
C -1.20401 -1.385259 -0.204372
O -1.151886 -1.783052 -1.354557
O -2.358516 -1.641768 0.452497
H -2.962448 -2.103283 -0.121329
N 1.227881 -0.776748 0.066804
C 1.690882 0.547168 -0.434885
H 2.566265 0.829818 0.180873
H 2.048765 0.493578 -1.480897
C 0.540482 1.537223 -0.272639
H 0.085407 1.781628 -1.251386
H 0.88732 2.50157 0.140483
C -0.473039 0.864473 0.647618
H -1.513496 1.082992 0.344891
H -0.380971 1.244439 1.682804
H 1.285592 -1.47722 -0.63981
