16
Converted from CML to XYZ
H 1.519457 0.234715 0.25688
C 0.577127 -0.346383 0.39803
O 0.398646 -0.29963 1.785978
H -0.261828 -0.938906 2.02881
C -0.584045 0.342632 -0.387094
H -0.442447 0.178961 -1.481919
O -1.828883 -0.253373 -0.151
H -2.13723 0.016387 0.706978
C -0.595137 1.841475 -0.078742
O -1.355992 2.454769 0.644908
O 0.362898 2.55695 -0.707893
H 0.301014 3.475583 -0.464075
C 0.763114 -1.77734 -0.111191
O 0.424879 -2.816167 0.42274
O 1.392906 -1.877808 -1.302422
H 1.465522 -2.791866 -1.559989
