17
Converted from CML to XYZ
C -0.231663 0.05944 -2.068577
C -0.269588 -0.563559 -0.675187
C -0.030302 0.521071 0.417568
N 1.350901 1.051588 0.369288
O 0.598063 -1.662735 -0.550031
C -0.402002 -0.025407 1.791394
O 0.327532 -0.250615 2.740447
O -1.719021 -0.259289 1.988685
H -0.405311 -0.698785 -2.843686
H 0.73328 0.537713 -2.286038
H -1.010783 0.824758 -2.176255
H -1.261369 -1.041863 -0.494815
H -0.712312 1.379904 0.191531
H 2.006711 0.341575 0.621849
H 1.435301 1.816893 1.003971
H 1.44814 -1.407463 -0.887969
H -1.857577 -0.623225 2.857825
