24
Converted from CML to XYZ
N 1.170699 -2.179842 0.228015
C 1.490847 -0.983658 -0.582239
C 2.945909 -0.962253 -1.045633
O 3.91483 -1.497317 -0.536326
O 3.185119 -0.263816 -2.177537
C 1.205384 0.310126 0.200681
H 1.673802 0.272161 1.205864
H 1.680734 1.166525 -0.319994
C -0.261752 0.567828 0.316647
C -0.963513 1.087109 -0.775149
H -0.43221 1.295256 -1.711369
C -2.32381 1.341428 -0.686648
H -2.87136 1.749039 -1.54373
C -2.990437 1.068688 0.516572
C -2.298993 0.548307 1.617595
H -2.818344 0.331894 2.558082
C -0.936047 0.301285 1.507712
H -0.390954 -0.11167 2.364431
O -4.33057 1.342992 0.538359
H -4.663055 1.103046 1.394316
H 0.824073 -1.021306 -1.481615
H 4.113078 -0.292981 -2.390237
H 1.680505 -2.167473 1.086508
H 1.396066 -3.005368 -0.284305
