38
Converted from CML to XYZ
C -0.676728 -1.656684 -0.558396
C -0.780536 -3.007001 0.131958
C -1.421056 -4.040006 -0.781761
C -1.523056 -5.387965 -0.087437
C -2.150276 -6.441416 -0.960965
O -2.572524 -6.372428 -2.100858
O -2.259084 -7.661478 -0.377782
H -1.683401 -1.314754 -0.873412
H -0.090472 -1.754495 -1.4945
C -0.036467 -0.61866 0.349147
H -1.368049 -2.909784 1.067312
H 0.225796 -3.349546 0.447365
H -0.834317 -4.136722 -1.717295
H -2.426882 -3.697328 -1.097549
H -2.116907 -5.298221 0.845313
H -0.518451 -5.737668 0.227569
H -2.662112 -8.274176 -0.984962
C 0.066471 0.7298 -0.34504
H 0.96997 -0.960168 0.665043
H -0.623354 -0.519369 1.284578
C 0.705788 1.771261 0.559126
H -0.940396 1.070094 -0.661082
H 0.652848 0.629757 -1.280785
C 0.807487 3.118267 -0.138086
H 1.712554 1.431414 0.875734
H 0.119004 1.872253 1.49443
C 1.446242 4.161978 0.763609
H -0.19966 3.457234 -0.454567
H 1.393664 3.016711 -1.073762
H 2.453002 3.823585 1.081617
H 0.859434 4.265633 1.698545
C 1.549345 5.508642 0.065455
C 2.184206 6.549311 0.959913
H 0.542629 5.846117 -0.252178
H 2.135567 5.404454 -0.869287
H 3.198534 6.258061 1.263707
H 1.601465 6.704335 1.87771
H 2.259725 7.518963 0.451574
