50
Converted from CML to XYZ
C 4.642154 -1.065271 0.019793
C 3.577604 -1.015865 0.822438
C 2.312504 -0.298259 0.505259
C 2.067116 0.799297 1.480302
C 0.939415 0.959218 2.174725
C 4.735766 -0.383675 -1.29941
C -0.235342 0.049629 2.107116
H 5.530464 -1.633202 0.321513
H 3.598189 -1.52739 1.792081
H 1.468514 -1.025227 0.503615
H 2.347886 0.133785 -0.521453
H 2.893525 1.509231 1.606786
H 0.835745 1.811787 2.857737
C 5.227266 -1.309338 -2.355263
H 5.412011 0.497982 -1.205652
H 3.744893 0.024671 -1.60596
C -1.489515 0.807793 1.698542
H -0.043202 -0.788794 1.399093
C 6.13247 -0.979582 -3.278802
H 4.791305 -2.31535 -2.346677
H 6.439581 -1.715688 -4.032019
C 6.78105 0.354983 -3.380245
H 6.282251 0.927174 -4.187973
C 8.263004 0.235391 -3.659073
H 6.608238 0.939023 -2.447125
H 8.45867 -0.304423 -4.595116
H 8.782355 -0.3045 -2.856891
H 8.730415 1.224472 -3.746122
H -0.37616 -0.421696 3.100685
C -2.710104 -0.098042 1.718022
H -1.353865 1.241849 0.68798
H -1.648476 1.672143 2.374537
C -3.956101 0.646004 1.265474
H -2.861429 -0.506688 2.737607
H -2.53855 -0.979464 1.067597
C -5.183809 -0.248523 1.323308
H -3.813979 1.029012 0.234618
H -4.112277 1.543839 1.897126
C -6.421797 0.485287 0.83238
H -5.017213 -1.160417 0.714852
H -5.341622 -0.607847 2.360385
H -6.580989 1.404306 1.431542
C -7.648943 -0.411258 0.913418
H -6.269152 0.828023 -0.210577
C -8.871305 0.321604 0.42209
H -7.8225 -0.735948 1.958824
H -7.48857 -1.338653 0.327097
O -9.232348 0.054485 -0.855247
O -9.578345 1.116661 1.014382
H -10.0068 0.55745 -1.087318
