11
Converted from CML to XYZ
O 0.911971 1.488192 0.391173
C 0.541711 0.342277 0.206453
C -0.800527 0.004041 -0.328233
C -1.731013 0.915178 -0.596142
C 1.422324 -0.84051 0.506774
H -0.990789 -1.063613 -0.493632
H -1.579719 1.981899 -0.445594
H -2.710083 0.651232 -0.985698
H 2.399366 -0.551174 0.914584
H 1.599598 -1.424939 -0.405647
H 0.937161 -1.502584 1.235961
