44
Converted from CML to XYZ
C -1.241699 -2.77275 -0.694969
C -1.437044 -4.121136 -0.020924
C -2.146617 -5.097545 -0.945826
C -2.339039 -6.443275 -0.266416
C -3.036662 -7.442374 -1.150294
O -3.45511 -7.332397 -2.288463
O -3.225777 -8.658764 -0.580131
H -2.222795 -2.359234 -1.004738
H -0.663671 -2.898829 -1.632785
C -0.531972 -1.792098 0.224688
H -2.016351 -3.995491 0.91617
H -0.456271 -4.535207 0.289183
H -1.568339 -5.223148 -1.883211
H -3.12718 -4.684084 -1.256333
H -2.924809 -6.324012 0.668183
H -1.360093 -6.863545 0.043233
H -3.669903 -9.236609 -1.192761
C -0.337097 -0.445331 -0.4528
H 0.448773 -2.205465 0.535466
H -1.110652 -1.66454 1.161796
C 0.371834 0.538808 0.46363
H -1.318331 -0.033153 -0.763809
H 0.241143 -0.573566 -1.390149
C 0.565003 1.884225 -0.217149
H 1.353113 0.127248 0.775081
H -0.206604 0.668008 1.400655
C 1.273321 2.87118 0.696683
H -0.416758 2.294743 -0.528678
H 1.142956 1.754464 -1.15446
H 2.255022 2.461096 1.008795
H 0.695037 3.001954 1.633597
C 1.4655 4.215471 0.013372
C 2.173599 5.203867 0.925602
H 0.483496 4.625055 -0.298582
H 2.043211 4.084473 -0.923909
H 3.155107 4.794527 1.239145
H 1.595223 5.336928 1.86208
C 2.367868 6.547967 0.242114
C 3.071986 7.533163 1.147496
H 1.386376 6.95645 -0.07102
H 2.945638 6.414425 -0.694145
H 4.064096 7.170213 1.447422
H 2.501092 7.71735 2.067343
H 3.213377 8.500941 0.649815
