14
Converted from CML to XYZ
C 1.558667 1.19002 0.349141
C 0.207739 1.167085 0.020247
C -0.4445 -0.064575 -0.099727
C 0.283634 -1.243059 0.117062
N 1.595798 -1.205862 0.436767
C 2.230242 -0.016035 0.552377
C -1.881491 -0.090485 -0.448049
O -2.434211 -1.312006 -0.643427
O -2.643095 0.852507 -0.585497
H 2.090418 2.141926 0.44807
H -0.343052 2.102199 -0.143155
H -0.158015 -2.245108 0.042496
H 3.293843 -0.066651 0.813492
H -3.355978 -1.209957 -0.859797
