15
Converted from CML to XYZ
C 1.812643 0.128205 -1.002477
C 2.331042 0.769058 0.12262
N 1.531041 1.131291 1.153712
C 0.203554 0.868965 1.106952
C -0.363631 0.205874 0.012069
C 0.453878 -0.155768 -1.056522
C -1.820407 -0.106633 -0.043977
N -2.219505 -1.388616 0.362279
O -2.686489 0.670496 -0.42592
H 2.458572 -0.154266 -1.83763
H 3.401032 1.005178 0.201459
H -0.385922 1.206863 1.968214
H 0.025556 -0.662397 -1.925002
H -3.180594 -1.553906 0.538388
H -1.560765 -1.964346 0.825834
