26
Converted from CML to XYZ
C -0.136764 0.757147 -0.344035
C 0.138568 -0.583659 0.317196
C -0.516149 -1.719584 -0.452924
C -0.236492 -3.055972 0.214667
C -0.866118 -4.210996 -0.517111
O -1.542281 -4.2292 -1.529542
O -0.639179 -5.423133 0.048155
H -1.230277 0.926656 -0.415037
H 0.230031 0.745625 -1.390406
C 0.516658 1.895169 0.423206
H -0.22884 -0.572059 1.36335
H 1.232101 -0.753052 0.388332
H -0.149367 -1.73183 -1.498949
H -1.609409 -1.550829 -0.524643
H -0.608256 -3.050819 1.260013
H 0.856778 -3.231592 0.28474
H -1.06459 -6.103097 -0.465014
C 0.243889 3.236967 -0.237451
H 1.609915 1.725585 0.495621
H 0.148977 1.907996 1.469071
C 0.892659 4.370703 0.524014
H -0.849017 3.405995 -0.309567
H 0.611482 3.223794 -1.282878
H 0.695989 5.337353 0.043254
H 1.98254 4.248709 0.581861
H 0.517151 4.434122 1.554076
