88
Converted from CML to XYZ
C 0.30747 -2.44014 1.31152
C 0.73095 -2.30528 -0.08103
C 1.51495 -1.03565 -0.23895
C 1.26637 -0.29381 1.04156
C 0.63939 -1.19433 2.00659
C -0.20311 -0.7082 2.99557
C -0.4931 0.72373 3.05735
C 0.07229 1.57451 2.11903
C 0.96524 1.04796 1.08164
C 0.70677 1.81119 -0.16287
C 0.7605 1.20021 -1.39448
C 1.23447 -0.21101 -1.58485
C 0.2226 -0.81051 -2.51593
C -0.32672 -2.05702 -2.32071
C -0.06681 -2.82078 -1.07676
C -1.29465 -3.54803 -0.73931
C -2.30859 -3.24949 -1.75656
C -1.70903 -2.32805 -2.72767
C -2.4834 -1.32686 -3.29507
C -1.91422 0.00854 -3.47105
C -0.60662 0.25337 -3.07796
C -0.27368 1.49894 -2.38304
C -1.26756 2.43022 -2.12006
C -1.30048 3.10425 -0.82284
C -0.34137 2.79443 0.13005
C -0.73318 2.65354 1.53684
C -2.0569 2.81599 1.91203
C -2.65881 1.90401 2.89412
C -1.89881 0.8887 3.45125
C -2.47835 -0.44972 3.62868
C -3.78415 -0.69681 3.23548
C -4.58972 0.38049 2.64605
C -4.04378 1.64362 2.48158
C -4.30039 2.4001 1.24853
C -3.07403 3.12807 0.89887
C -2.70624 3.26931 -0.42914
C -3.54322 2.68967 -1.48844
C -2.65301 2.17164 -2.53547
C -2.96757 0.9942 -3.19265
C -4.19148 0.26137 -2.84349
C -3.89286 -1.17571 -2.9093
C -4.45414 -2.04263 -1.9861
C -3.63949 -3.1137 -1.39635
C -4.03887 -3.26679 0.00915
C -5.09178 -2.28287 0.29084
C -5.34843 -1.52636 -0.94217
C -5.62789 -0.17049 -0.87797
C -5.03215 0.74945 -1.85563
C -4.69858 1.99893 -1.15844
C -5.08848 1.85066 0.24973
C -5.66443 0.51054 0.42303
C -5.42238 -0.20289 1.58583
C -5.12911 -1.64068 1.51834
C -4.11756 -1.94634 2.5383
C -3.12625 -2.87808 2.27371
C -3.08498 -3.55635 0.97099
C -1.6756 -3.70743 0.58483
C -0.84928 -3.12975 1.64403
C -1.74283 -2.61553 2.69096
C -1.42862 -1.43792 3.34799
C 2.62013 -0.76027 -1.25313
C 3.14959 -1.92237 -2.08458
C 3.69273 0.22498 -0.89297
C 4.37363 0.11595 0.32736
C 5.39583 1.01803 0.63536
C 5.73906 2.02754 -0.26951
C 5.05734 2.13632 -1.48623
C 4.0353 1.23727 -1.80124
H 5.92461 0.93339 1.58423
H 6.53502 2.72972 -0.02633
H 4.10471 -0.66707 1.03686
H 3.50129 1.32653 -2.74648
H 5.32174 2.9247 -2.18977
C 4.01954 -2.86113 -1.24177
H 3.73345 -1.51683 -2.93797
H 2.31428 -2.49148 -2.5426
H 3.45883 -3.20596 -0.34664
C 4.48252 -4.06863 -2.06124
H 4.90149 -2.31569 -0.8434
H 5.05315 -3.74792 -2.96048
H 3.61372 -4.63757 -2.4608
C 5.32999 -4.98893 -1.22844
O 5.57626 -4.96728 -0.04726
O 5.84555 -5.96355 -2.06009
C 6.68524 -6.97449 -1.44241
H 7.05141 -7.54151 -2.30457
H 6.07479 -7.59105 -0.7756
H 7.5001 -6.49621 -0.88932
