47
Converted from CML to XYZ
C 8.788224 0.194582 0.025518
C 7.485804 0.962158 0.0008
C 6.287563 0.026664 0.021099
C 4.97926 0.800089 -0.003769
C 3.782616 -0.137079 0.016786
C 2.474171 0.636322 -0.008085
C 1.27754 -0.300905 0.012448
C -0.030829 0.47266 -0.012446
C -1.227664 -0.464276 0.008063
C -2.535879 0.309566 -0.016857
C -3.732732 -0.627323 0.003626
C -5.041073 0.146271 -0.02132
C -6.237619 -0.790847 -0.000847
H 8.87435 -0.428455 0.925748
H 9.650947 0.872718 0.012111
H 8.881662 -0.472529 -0.841774
H 7.444234 1.607797 -0.899011
H 7.437957 1.654407 0.864952
H 6.328838 -0.619878 0.920827
H 6.33503 -0.665749 -0.843494
H 4.938644 1.446015 -0.904048
H 4.932535 1.49286 0.860677
H 3.823343 -0.783463 0.916723
H 3.829397 -0.829538 -0.847889
H 2.433472 1.282255 -0.908361
H 2.427352 1.329087 0.856365
H 1.318236 -0.947298 0.912378
H 1.324316 -0.993363 -0.852227
H -0.071375 1.118563 -0.912745
H -0.07752 1.165402 0.852021
H -1.187205 -1.110683 0.907991
H -1.181101 -1.156749 -0.856611
H -2.576327 0.955512 -0.91713
H -2.5825 1.002339 0.847591
H -3.692245 -1.273721 0.903567
H -3.686106 -1.319799 -0.861046
H -5.081701 0.792201 -0.921597
H -5.087904 0.83903 0.84313
C -7.547489 -0.019415 -0.025473
H -6.197487 -1.437499 0.898859
H -6.19155 -1.483323 -0.86547
H -7.593281 0.6729 0.838729
C -8.738735 -0.950262 -0.005153
H -7.587293 0.626407 -0.925228
H -9.682537 -0.390545 -0.021188
H -8.745747 -1.579797 0.894644
H -8.741611 -1.623307 -0.872887
