16
Converted from CML to XYZ
C 2.116694 0.712043 0.113652
C 2.128626 -0.6745 0.118601
C 0.935242 -1.409432 0.055548
C -0.249886 -0.709229 -0.011489
C -0.26208 0.704765 -0.016558
C 0.910773 1.425831 0.045434
C -1.676974 1.169475 -0.095457
N -2.486862 -0.021954 -0.136181
C -1.656517 -1.198915 -0.086958
O -2.156557 2.282396 -0.125142
O -2.116316 -2.320318 -0.108603
H 3.061778 1.264353 0.163715
H 3.082946 -1.210261 0.17253
H 0.945803 -2.504825 0.059552
H 0.902519 2.521232 0.041598
H -3.479189 -0.030662 -0.190243
