15
Converted from CML to XYZ
C 1.493011 1.311146 0.673498
C 0.173423 1.309887 0.224841
C -0.422155 0.096533 -0.131504
N 0.266817 -1.075899 -0.046056
C 2.187915 0.111286 0.757673
C -1.838737 0.059633 -0.617168
N -2.41921 -1.152077 -0.968623
O -2.541846 1.063438 -0.727853
H 1.975258 2.252689 0.956909
H -0.396216 2.244971 0.150075
H 3.224837 0.086091 1.107175
C 1.542881 -1.072351 0.388301
H 2.03273 -2.051922 0.430734
H -1.922009 -2.0057 -0.908294
H -3.356702 -1.177723 -1.28971
