38
Converted from CML to XYZ
C 3.907335 1.932793 -0.004212
C 4.339238 0.645018 -0.003134
C 3.151443 -0.223227 0.005477
C 2.433387 1.908125 0.005978
N 2.00264 0.643641 0.012089
C 1.601786 3.078419 0.000921
C 0.247641 3.08235 0.046601
N -0.613273 1.952243 0.19906
C -1.965687 2.387242 0.045888
C -0.629879 4.263802 -0.006432
C -1.921227 3.858272 -0.006811
C -3.074416 1.609917 -0.000762
C -3.087474 0.174311 0.003727
N -2.011106 -0.616818 0.010471
C -3.928781 -1.951667 -0.007053
C -4.310774 -0.648213 -0.007916
C -0.225759 -3.082536 0.00861
N 0.620542 -1.974906 0.023185
C 1.948024 -2.400107 0.00967
C 1.930827 -3.818467 -0.008971
C 0.598995 -4.236561 -0.009628
C 3.11758 -1.574947 0.007881
C -1.657017 -3.074287 0.005548
C -2.457857 -1.984844 0.002873
H 4.501027 2.844163 -0.009585
H 5.362598 0.276157 -0.008123
H 2.126785 4.040273 -0.054195
H -0.328846 1.046557 -0.100682
H -0.248899 5.283427 -0.040031
H -2.816794 4.476885 -0.040753
H -4.055079 2.098802 -0.056305
H -4.557518 -2.839334 -0.013001
H -5.318964 -0.240098 -0.014026
H 0.323208 -1.028248 0.041624
H 2.812154 -4.45539 -0.021526
H 0.239687 -5.262858 -0.022785
H 4.070815 -2.121876 0.004742
H -2.126364 -4.068013 0.001585
