14
Converted from CML to XYZ
H 1.554696 0.968039 0.253681
C 1.231494 -0.056448 -0.01432
H 1.451865 -0.217023 -1.084159
O 2.016863 -1.022562 0.629748
H 2.06886 -0.780445 1.545803
C -0.278994 -0.252462 0.254726
H -0.577017 -1.298037 -0.006796
O -0.593549 -0.002759 1.611661
H -0.299683 -0.762026 2.096067
C -1.10819 0.758098 -0.572748
H -0.668994 1.770951 -0.542976
H -2.143656 0.827609 -0.185111
O -1.115074 0.455044 -1.940308
H -1.538621 -0.387979 -2.045269
