12
Converted from CML to XYZ
C 0.943507 -0.742911 1.007909
C 0.460069 0.313739 0.039252
C -0.835361 -0.107878 -0.62822
S -1.460684 1.054763 -1.876896
H 1.236378 0.509414 -0.727254
H 0.316091 1.275484 0.571576
H -1.607595 -0.306252 0.137814
H -0.694739 -1.061923 -1.173134
H -1.579641 2.134297 -1.148418
H 1.134969 -1.698867 0.502464
H 0.208642 -0.934383 1.801257
H 1.878364 -0.435483 1.49365
