12
Converted from CML to XYZ
H 1.968904 -0.028022 1.059642
C 1.370384 -0.060751 0.140144
H 1.628613 0.82839 -0.450287
H 1.684746 -0.942964 -0.431595
C -0.12238 -0.124966 0.444378
H -0.342327 -1.04222 1.044874
O -0.425535 1.008964 1.238514
H -1.365612 1.013059 1.358342
C -0.939836 -0.153996 -0.845989
H -0.777551 0.747262 -1.452004
H -0.662336 -1.019266 -1.46093
H -2.017071 -0.225489 -0.645088
