17
Converted from CML to XYZ
C 2.384415 0.665946 0.023
C 2.284646 -0.744039 0.032378
C 1.059556 -1.357619 0.022595
C -0.124158 -0.577603 0.002866
C 1.259704 1.448891 0.003937
C -0.020264 0.830152 -0.006454
C -2.523708 -0.358925 -0.02693
N -1.163279 1.626858 -0.025833
C -1.42138 -1.165804 -0.00795
H 3.377981 1.126582 0.031224
H 3.202345 -1.341389 0.047624
H 0.975389 -2.450101 0.029781
H 1.331889 2.542849 -0.003405
C -2.356507 1.05522 -0.035559
H -3.535628 -0.775729 -0.03568
H -1.512387 -2.257586 -0.000852
H -3.218615 1.732297 -0.05074
