15
Converted from CML to XYZ
C 0.726526 0.15005 0.397928
C -0.566513 -0.273104 -0.294814
S -1.252283 1.001474 -1.426742
C 1.900209 0.223465 -0.552749
H 0.580356 1.125863 0.90381
C -1.590262 -0.720024 0.731493
H -1.461193 1.978563 -0.581969
H 0.954309 -0.571225 1.209605
H -2.542197 -0.99492 0.25813
H -1.80055 0.068764 1.466898
H -1.235428 -1.59814 1.288714
H -0.349155 -1.120526 -0.989805
H 2.803833 0.571443 -0.036357
H 1.703564 0.915641 -1.383327
H 2.128785 -0.757323 -0.990815
