16
Converted from CML to XYZ
C 1.842709 0.542419 0.227126
C 0.569182 -0.293376 0.171245
C -0.655379 0.627128 0.049913
C -1.957408 -0.08601 0.337339
H 2.7393 -0.088023 0.29342
H 1.840905 1.201123 1.105874
H 1.954558 1.181864 -0.659618
H 0.484273 -0.887587 1.115033
N 0.681427 -1.290508 -0.923457
H -0.688468 1.091638 -0.956717
H -0.539653 1.472037 0.758278
H -2.168089 -0.880904 -0.391203
H -2.804432 0.611688 0.304531
H -1.954879 -0.550095 1.332947
H 0.814103 -0.821397 -1.795842
H -0.158149 -1.829999 -0.968869
