28
Converted from CML to XYZ
C 2.482164 0.632247 0.487152
C 2.505304 -0.534165 -0.486817
C 1.274527 -1.40567 -0.304289
C -0.014244 -0.600655 -0.478305
C -0.038004 0.599905 0.477148
C 1.2183 1.454851 0.303683
C -1.286287 1.462125 0.258517
C -2.477714 0.664987 -0.253259
C -2.447813 -0.76251 0.257467
C -1.228106 -1.511084 -0.260928
H 2.545292 0.257889 1.528346
H 2.55444 -0.15778 -1.528059
H 1.288934 -2.24309 -1.0286
H 1.19944 2.29248 1.027709
H -1.070992 2.284264 -0.453604
H -3.420834 1.16058 0.047325
H -3.371713 -1.295586 -0.038492
H -0.979998 -2.328218 0.446275
H -1.543887 1.962909 1.212503
H -2.48525 0.659313 -1.361748
H -2.449879 -0.757287 1.365958
H -1.468881 -2.016399 -1.216894
H 3.37452 1.270532 0.340486
H 3.421761 -1.137166 -0.339563
H 1.296431 -1.874225 0.701031
H -0.045565 -0.203098 -1.523277
H -0.054382 0.201484 1.522131
H 1.222438 1.923367 -0.701898
