13
Converted from CML to XYZ
C 1.416911 -0.000338 -0.092767
N -0.016096 -0.208289 -0.398265
C -0.673219 -1.111142 0.572942
C -0.747047 1.067925 -0.563546
H 1.591732 0.50766 0.86828
H 1.925608 -0.972509 -0.065761
H -1.705867 -1.297945 0.251683
H -0.697684 -0.709978 1.597982
H -0.267926 1.659235 -1.354305
H -0.778484 1.677588 0.352723
H 1.872537 0.602453 -0.888729
H -0.141559 -2.071129 0.59154
H -1.778904 0.856467 -0.871777
