16
Converted from CML to XYZ
N 2.12168 0.646513 -0.165095
C 2.100151 -0.769291 -0.012431
N 0.85143 -1.453427 0.11766
C -0.319707 -0.679739 0.087519
C -0.298745 0.695332 -0.060906
C 0.932391 1.452123 -0.197879
N -1.646473 1.167166 -0.050392
C -2.510956 0.055458 0.10769
N -1.662631 -1.109753 0.194408
O 3.136424 -1.420897 0.010324
O 1.068513 2.656319 -0.333479
O -3.732982 0.046749 0.163665
H 3.01497 1.085289 -0.252914
H 0.817391 -2.441229 0.224596
H -1.909944 2.116389 -0.140767
H -1.961513 -2.047003 0.308002
