22
Converted from CML to XYZ
H -1.669322 -1.80597 1.050014
C -0.908906 -1.077612 0.705187
H -0.095036 -1.693778 0.262293
C -0.377858 -0.332631 1.917562
H -1.223257 0.182501 2.420154
H 0.004916 -1.068596 2.655233
C 0.696223 0.67108 1.703272
H 0.822561 1.345383 2.562761
C 1.512673 0.850895 0.664939
H 2.243081 1.669075 0.722051
C 1.553322 0.079287 -0.606007
H 2.576707 0.139265 -1.025138
H 1.375005 -1.002143 -0.41651
C 0.547228 0.620427 -1.618759
H 1.001763 0.60288 -2.62913
H 0.335308 1.687795 -1.407878
C -0.754726 -0.164818 -1.662782
H -1.398219 0.266866 -2.455613
H -0.555872 -1.208593 -1.980884
C -1.522424 -0.160504 -0.349159
H -2.565378 -0.477526 -0.546323
H -1.597792 0.876716 0.034719
