18
Converted from CML to XYZ
H -0.249763 0.105648 2.03829
C -0.694984 0.038227 1.037458
C 0.259047 0.019808 -0.102967
C -2.02291 -0.021252 0.918368
H -2.644245 -0.004847 1.822397
C -2.768403 -0.118941 -0.354526
H 0.093237 -0.890807 -0.714913
C 1.706762 0.071313 0.363374
H 0.05109 0.875659 -0.778347
H -3.231058 -1.110985 -0.448518
H -2.137424 0.036218 -1.240145
H -3.5739 0.626675 -0.389689
H 1.875219 0.981969 0.97181
C 2.663625 0.047791 -0.807134
H 1.91572 -0.780894 1.040032
H 3.70698 0.089047 -0.46941
H 2.502432 0.900727 -1.479853
H 2.548574 -0.865356 -1.406227
