21
Converted from CML to XYZ
H -0.883102 0.102457 2.077625
C -1.339063 0.023298 1.082498
C -0.397893 -0.004077 -0.068474
C -2.667998 -0.041544 0.978137
H -3.279923 -0.017684 1.888406
C -3.426072 -0.155391 -0.286008
H -0.566333 -0.923515 -0.666426
C 1.054013 0.061784 0.381576
H -0.619369 0.842042 -0.751904
H -3.874587 -1.15473 -0.371
H -2.807133 0.005534 -1.179096
H -4.243087 0.577804 -0.315533
H 1.225586 0.979823 0.978777
C 2.001525 0.033023 -0.807171
H 1.27896 -0.78242 1.063823
C 3.445929 0.102436 -0.365661
H 1.773975 0.874984 -1.490995
H 1.831567 -0.886408 -1.402172
H 4.126835 0.082634 -1.226068
H 3.712166 -0.742646 0.283139
H 3.654004 1.022596 0.196526
