24
Converted from CML to XYZ
H -0.224194 0.175906 2.111075
C -0.67458 0.113299 1.112837
C 0.262578 -0.041255 -0.029738
C -2.002185 0.176272 0.981589
H -2.632161 0.29 1.872282
C -2.710465 0.101276 -0.322783
H 0.027557 -0.980207 -0.57433
C 1.716269 -0.045884 0.417165
H 0.091652 0.775504 -0.762757
H -2.43949 -0.846251 -0.833667
H -2.342797 0.910663 -0.987706
C -4.212127 0.197999 -0.167696
H 1.948069 0.889966 0.964173
C 2.65711 -0.200503 -0.767142
H 1.88742 -0.864848 1.144332
C 4.104059 -0.199935 -0.328574
H 2.482416 0.615407 -1.496586
H 2.426984 -1.138472 -1.310738
H 4.780184 -0.309738 -1.185975
H 4.317188 -1.024085 0.365207
H 4.37214 0.733983 0.183268
H -4.715145 0.143413 -1.141524
H -4.511252 1.143263 0.304057
H -4.609234 -0.615772 0.453232
